Circuit: * C:\Users\Jasper Rubin\Desktop\Projects\EE\shiny-boost\Simulations\ShinyBoost.asc

.OP point found by inspection.
Heightened Def Con from 9.0084e-006 +++++++++++++++++++++to 9.00947e-006
Heightened Def Con from 1.90084e-005 +++++++++++++++++++++to 1.90095e-005
Heightened Def Con from 2.90084e-005 +++++++++++++++++++++to 2.90095e-005
Heightened Def Con from 3.90084e-005 +++++++++++++++++++++to 3.90095e-005
Heightened Def Con from 4.90084e-005 +++++++++++++++++++++to 4.90095e-005
Heightened Def Con from 5.90084e-005 +++++++++++++++++++++to 5.90095e-005
Heightened Def Con from 6.90084e-005 +++++++++++++++++++++to 6.90095e-005
Heightened Def Con from 7.90084e-005 +++++++++++++++++++++to 7.90095e-005
Heightened Def Con from 8.90084e-005 +++++++++++++++++++++to 8.90095e-005
Heightened Def Con from 9.90084e-005 +++++++++++++++++++++to 9.90095e-005
Heightened Def Con from 0.000109008 +++++++++++++++++++++to 0.000109009
Heightened Def Con from 0.000119008 +++++++++++++++++++++to 0.000119009
Heightened Def Con from 0.000129008 +++++++++++++++++++++to 0.000129009
Heightened Def Con from 0.000139008 +++++++++++++++++++++to 0.00013901
Heightened Def Con from 0.000149008 +++++++++++++++++++++to 0.00014901
Heightened Def Con from 0.000159008 +++++++++++++++++++++to 0.00015901
Heightened Def Con from 0.000169008 +++++++++++++++++++++to 0.00016901
Heightened Def Con from 0.00196901 +++++++++++++++++++++to 0.00196901
Heightened Def Con from 0.00197901 +++++++++++++++++++++to 0.00197901
Heightened Def Con from 0.00198901 +++++++++++++++++++++to 0.00198901
Heightened Def Con from 0.00199901 +++++++++++++++++++++to 0.00199901
Heightened Def Con from 0.00200901 +++++++++++++++++++++to 0.00200901
Heightened Def Con from 0.00201901 +++++++++++++++++++++to 0.00201901
Heightened Def Con from 0.00202901 +++++++++++++++++++++to 0.00202901
Heightened Def Con from 0.00203901 +++++++++++++++++++++to 0.00203901
Heightened Def Con from 0.00204901 +++++++++++++++++++++to 0.00204901
Heightened Def Con from 0.00205901 +++++++++++++++++++++to 0.00205901
Heightened Def Con from 0.00206901 +++++++++++++++++++++to 0.00206901
Heightened Def Con from 0.00207901 +++++++++++++++++++++to 0.00207901
Heightened Def Con from 0.00208901 +++++++++++++++++++++to 0.00208901
Heightened Def Con from 0.00209901 +++++++++++++++++++++to 0.00209901
Heightened Def Con from 0.00210901 +++++++++++++++++++++to 0.00210901
Heightened Def Con from 0.00211901 +++++++++++++++++++++to 0.00211901
Heightened Def Con from 0.00212901 +++++++++++++++++++++to 0.00212901
Heightened Def Con from 0.00213901 +++++++++++++++++++++to 0.00213901
Heightened Def Con from 0.00214901 +++++++++++++++++++++to 0.00214901
Heightened Def Con from 0.00215901 +++++++++++++++++++++to 0.00215901
Heightened Def Con from 0.00216901 +++++++++++++++++++++to 0.00216901
Heightened Def Con from 0.00217901 +++++++++++++++++++++to 0.00217901
Heightened Def Con from 0.00218901 +++++++++++++++++++++to 0.00218901
Heightened Def Con from 0.00219901 +++++++++++++++++++++to 0.00219901
Heightened Def Con from 0.00220901 +++++++++++++++++++++to 0.00220901
Heightened Def Con from 0.00221901 +++++++++++++++++++++to 0.00221901
Heightened Def Con from 0.00222901 +++++++++++++++++++++to 0.00222901
Heightened Def Con from 0.00223901 +++++++++++++++++++++to 0.00223901
Heightened Def Con from 0.00224901 +++++++++++++++++++++to 0.00224901
Heightened Def Con from 0.00225901 +++++++++++++++++++++to 0.00225901
Heightened Def Con from 0.00226901 +++++++++++++++++++++to 0.00226901
Heightened Def Con from 0.00227901 +++++++++++++++++++++to 0.00227901
Heightened Def Con from 0.00228901 +++++++++++++++++++++to 0.00228901
Heightened Def Con from 0.00229901 +++++++++++++++++++++to 0.00229901
Heightened Def Con from 0.00230901 +++++++++++++++++++++to 0.00230901
Heightened Def Con from 0.00231901 +++++++++++++++++++++to 0.00231901
Heightened Def Con from 0.00232901 +++++++++++++++++++++to 0.00232901
Heightened Def Con from 0.00233901 +++++++++++++++++++++to 0.00233901
Heightened Def Con from 0.00234901 +++++++++++++++++++++to 0.00234901
Heightened Def Con from 0.00235901 +++++++++++++++++++++to 0.00235901
Heightened Def Con from 0.00236901 +++++++++++++++++++++to 0.00236901
Heightened Def Con from 0.00237901 +++++++++++++++++++++to 0.00237901
Heightened Def Con from 0.00238901 +++++++++++++++++++++to 0.00238901
Heightened Def Con from 0.00239901 +++++++++++++++++++++to 0.00239901
Heightened Def Con from 0.00240901 +++++++++++++++++++++to 0.00240901
Heightened Def Con from 0.00241901 +++++++++++++++++++++to 0.00241901
Heightened Def Con from 0.00242901 +++++++++++++++++++++to 0.00242901
Heightened Def Con from 0.00243901 +++++++++++++++++++++to 0.00243901
Heightened Def Con from 0.00244901 +++++++++++++++++++++to 0.00244901
Heightened Def Con from 0.00245901 +++++++++++++++++++++to 0.00245901
Heightened Def Con from 0.00246901 +++++++++++++++++++++to 0.00246901
Heightened Def Con from 0.00247901 +++++++++++++++++++++to 0.00247901
Heightened Def Con from 0.00248901 +++++++++++++++++++++to 0.00248901
Heightened Def Con from 0.00249901 +++++++++++++++++++++to 0.00249901
Heightened Def Con from 0.00250901 +++++++++++++++++++++to 0.00250901
Heightened Def Con from 0.00251901 +++++++++++++++++++++to 0.00251901
Heightened Def Con from 0.00252901 +++++++++++++++++++++to 0.00252901
Heightened Def Con from 0.00253901 +++++++++++++++++++++to 0.00253901
Heightened Def Con from 0.00254901 +++++++++++++++++++++to 0.00254901
Heightened Def Con from 0.00255901 +++++++++++++++++++++to 0.00255901
Heightened Def Con from 0.00256901 +++++++++++++++++++++to 0.00256901
Heightened Def Con from 0.00257901 +++++++++++++++++++++to 0.00257901
Heightened Def Con from 0.00258901 +++++++++++++++++++++to 0.00258901
Heightened Def Con from 0.00259901 +++++++++++++++++++++to 0.00259901
Heightened Def Con from 0.00260901 +++++++++++++++++++++to 0.00260901
Heightened Def Con from 0.00261901 +++++++++++++++++++++to 0.00261901
Heightened Def Con from 0.00262901 +++++++++++++++++++++to 0.00262901
Heightened Def Con from 0.00263901 +++++++++++++++++++++to 0.00263901
Heightened Def Con from 0.00264901 +++++++++++++++++++++to 0.00264901
Heightened Def Con from 0.00265901 +++++++++++++++++++++to 0.00265901
Heightened Def Con from 0.00266901 +++++++++++++++++++++to 0.00266901
Heightened Def Con from 0.00267901 +++++++++++++++++++++to 0.00267901
Heightened Def Con from 0.00268901 +++++++++++++++++++++to 0.00268901
Heightened Def Con from 0.00269901 +++++++++++++++++++++to 0.00269901
Heightened Def Con from 0.00270901 +++++++++++++++++++++to 0.00270901
Heightened Def Con from 0.00271901 +++++++++++++++++++++to 0.00271901
Heightened Def Con from 0.00272901 +++++++++++++++++++++to 0.00272901
Heightened Def Con from 0.00273901 +++++++++++++++++++++to 0.00273901
Heightened Def Con from 0.00274901 +++++++++++++++++++++to 0.00274901
Heightened Def Con from 0.00275901 +++++++++++++++++++++to 0.00275901
Heightened Def Con from 0.00276901 +++++++++++++++++++++to 0.00276901
Heightened Def Con from 0.00277901 +++++++++++++++++++++to 0.00277901
Heightened Def Con from 0.00278901 +++++++++++++++++++++to 0.00278901
Heightened Def Con from 0.00279901 +++++++++++++++++++++to 0.00279901
Heightened Def Con from 0.00280901 +++++++++++++++++++++to 0.00280901
Heightened Def Con from 0.00281901 +++++++++++++++++++++to 0.00281901
Heightened Def Con from 0.00282901 +++++++++++++++++++++to 0.00282901
Heightened Def Con from 0.00283901 +++++++++++++++++++++to 0.00283901
Heightened Def Con from 0.00284901 +++++++++++++++++++++to 0.00284901
Heightened Def Con from 0.00285901 +++++++++++++++++++++to 0.00285901
Heightened Def Con from 0.00286901 +++++++++++++++++++++to 0.00286901
Heightened Def Con from 0.00287901 +++++++++++++++++++++to 0.00287901
Heightened Def Con from 0.00288901 +++++++++++++++++++++to 0.00288901
Heightened Def Con from 0.00289901 +++++++++++++++++++++to 0.00289901
Heightened Def Con from 0.00290901 +++++++++++++++++++++to 0.00290901
Heightened Def Con from 0.00291901 +++++++++++++++++++++to 0.00291901
Heightened Def Con from 0.00292901 +++++++++++++++++++++to 0.00292901
Heightened Def Con from 0.00293901 +++++++++++++++++++++to 0.00293901
Heightened Def Con from 0.00294901 +++++++++++++++++++++to 0.00294901
Heightened Def Con from 0.00295901 +++++++++++++++++++++to 0.00295901
Heightened Def Con from 0.00296901 +++++++++++++++++++++to 0.00296901
Heightened Def Con from 0.00297901 +++++++++++++++++++++to 0.00297901
Heightened Def Con from 0.00298901 +++++++++++++++++++++to 0.00298901
Heightened Def Con from 0.00299901 +++++++++++++++++++++to 0.00299901
Heightened Def Con from 0.00300901 +++++++++++++++++++++to 0.00300901
Heightened Def Con from 0.00301901 +++++++++++++++++++++to 0.00301901
Heightened Def Con from 0.00302901 +++++++++++++++++++++to 0.00302901
Heightened Def Con from 0.00303901 +++++++++++++++++++++to 0.00303901
Heightened Def Con from 0.00304901 +++++++++++++++++++++to 0.00304901
Heightened Def Con from 0.00305901 +++++++++++++++++++++to 0.00305901
Heightened Def Con from 0.00306901 +++++++++++++++++++++to 0.00306901
Heightened Def Con from 0.00307901 +++++++++++++++++++++to 0.00307901
Heightened Def Con from 0.00308901 +++++++++++++++++++++to 0.00308901
Heightened Def Con from 0.00309901 +++++++++++++++++++++to 0.00309901
Heightened Def Con from 0.00310901 +++++++++++++++++++++to 0.00310901
Heightened Def Con from 0.00311901 +++++++++++++++++++++to 0.00311901
Heightened Def Con from 0.00312901 +++++++++++++++++++++to 0.00312901
Heightened Def Con from 0.00313901 +++++++++++++++++++++to 0.00313901
Heightened Def Con from 0.00314901 +++++++++++++++++++++to 0.00314901
Heightened Def Con from 0.00315901 +++++++++++++++++++++to 0.00315901
Heightened Def Con from 0.00316901 +++++++++++++++++++++to 0.00316901
Heightened Def Con from 0.00317901 +++++++++++++++++++++to 0.00317901
Heightened Def Con from 0.00318901 +++++++++++++++++++++to 0.00318901
Heightened Def Con from 0.00319901 +++++++++++++++++++++to 0.00319901
Heightened Def Con from 0.00320901 +++++++++++++++++++++to 0.00320901
Heightened Def Con from 0.00321901 +++++++++++++++++++++to 0.00321901
Heightened Def Con from 0.00322901 +++++++++++++++++++++to 0.00322901
Heightened Def Con from 0.00323901 +++++++++++++++++++++to 0.00323901
Heightened Def Con from 0.00324901 +++++++++++++++++++++to 0.00324901
Heightened Def Con from 0.00325901 +++++++++++++++++++++to 0.00325901
Heightened Def Con from 0.00326901 +++++++++++++++++++++to 0.00326901
Heightened Def Con from 0.00327901 +++++++++++++++++++++to 0.00327901
Heightened Def Con from 0.00328901 +++++++++++++++++++++to 0.00328901
Heightened Def Con from 0.00329901 +++++++++++++++++++++to 0.00329901
Heightened Def Con from 0.00330901 +++++++++++++++++++++to 0.00330901
Heightened Def Con from 0.00331901 +++++++++++++++++++++to 0.00331901
Heightened Def Con from 0.00332901 +++++++++++++++++++++to 0.00332901
Heightened Def Con from 0.00333901 +++++++++++++++++++++to 0.00333901
Heightened Def Con from 0.00334901 +++++++++++++++++++++to 0.00334901
Heightened Def Con from 0.00335901 +++++++++++++++++++++to 0.00335901
Heightened Def Con from 0.00336901 +++++++++++++++++++++to 0.00336901
Heightened Def Con from 0.00337901 +++++++++++++++++++++to 0.00337901
Heightened Def Con from 0.00338901 +++++++++++++++++++++to 0.00338901
Heightened Def Con from 0.00339901 +++++++++++++++++++++to 0.00339901
Heightened Def Con from 0.00340901 +++++++++++++++++++++to 0.00340901
Heightened Def Con from 0.00341901 +++++++++++++++++++++to 0.00341901
Heightened Def Con from 0.00342901 +++++++++++++++++++++to 0.00342901
Heightened Def Con from 0.00343901 +++++++++++++++++++++to 0.00343901
Heightened Def Con from 0.00344901 +++++++++++++++++++++to 0.00344901
Heightened Def Con from 0.00345901 +++++++++++++++++++++to 0.00345901
Heightened Def Con from 0.00346901 +++++++++++++++++++++to 0.00346901
Heightened Def Con from 0.00347901 +++++++++++++++++++++to 0.00347901
Heightened Def Con from 0.00348901 +++++++++++++++++++++to 0.00348901
Heightened Def Con from 0.00349901 +++++++++++++++++++++to 0.00349901
Heightened Def Con from 0.00350901 +++++++++++++++++++++to 0.00350901
Heightened Def Con from 0.00351901 +++++++++++++++++++++to 0.00351901
Heightened Def Con from 0.00352901 +++++++++++++++++++++to 0.00352901
Heightened Def Con from 0.00353901 +++++++++++++++++++++to 0.00353901
Heightened Def Con from 0.00354901 +++++++++++++++++++++to 0.00354901
Heightened Def Con from 0.00355901 +++++++++++++++++++++to 0.00355901
Heightened Def Con from 0.00356901 +++++++++++++++++++++to 0.00356901
Heightened Def Con from 0.00357901 +++++++++++++++++++++to 0.00357901
Heightened Def Con from 0.00358901 +++++++++++++++++++++to 0.00358901
Heightened Def Con from 0.00359901 +++++++++++++++++++++to 0.00359901
Heightened Def Con from 0.00360901 +++++++++++++++++++++to 0.00360901
Heightened Def Con from 0.00361901 +++++++++++++++++++++to 0.00361901
Heightened Def Con from 0.00362901 +++++++++++++++++++++to 0.00362901
Heightened Def Con from 0.00363901 +++++++++++++++++++++to 0.00363901
Heightened Def Con from 0.00364901 +++++++++++++++++++++to 0.00364901
Heightened Def Con from 0.00365901 +++++++++++++++++++++to 0.00365901
Heightened Def Con from 0.00366901 +++++++++++++++++++++to 0.00366901
Heightened Def Con from 0.00367901 +++++++++++++++++++++to 0.00367901
Heightened Def Con from 0.00368901 +++++++++++++++++++++to 0.00368901
Heightened Def Con from 0.00369901 +++++++++++++++++++++to 0.00369901
Heightened Def Con from 0.00370901 +++++++++++++++++++++to 0.00370901
Heightened Def Con from 0.00371901 +++++++++++++++++++++to 0.00371901
Heightened Def Con from 0.00372901 +++++++++++++++++++++to 0.00372901
Heightened Def Con from 0.00373901 +++++++++++++++++++++to 0.00373901
Heightened Def Con from 0.00374901 +++++++++++++++++++++to 0.00374901
Heightened Def Con from 0.00375901 +++++++++++++++++++++to 0.00375901
Heightened Def Con from 0.00376901 +++++++++++++++++++++to 0.00376901
Heightened Def Con from 0.00377901 +++++++++++++++++++++to 0.00377901
Heightened Def Con from 0.00378901 +++++++++++++++++++++to 0.00378901
Heightened Def Con from 0.00379901 +++++++++++++++++++++to 0.00379901
Heightened Def Con from 0.00380901 +++++++++++++++++++++to 0.00380901
Heightened Def Con from 0.00381901 +++++++++++++++++++++to 0.00381901
Heightened Def Con from 0.00382901 +++++++++++++++++++++to 0.00382901
Heightened Def Con from 0.00383901 +++++++++++++++++++++to 0.00383901
Heightened Def Con from 0.00384901 +++++++++++++++++++++to 0.00384901
Heightened Def Con from 0.00385901 +++++++++++++++++++++to 0.00385901
Heightened Def Con from 0.00386901 +++++++++++++++++++++to 0.00386901
Heightened Def Con from 0.00387901 +++++++++++++++++++++to 0.00387901
Heightened Def Con from 0.00388901 +++++++++++++++++++++to 0.00388901
Heightened Def Con from 0.00389901 +++++++++++++++++++++to 0.00389901
Heightened Def Con from 0.00390901 +++++++++++++++++++++to 0.00390901
Heightened Def Con from 0.00391901 +++++++++++++++++++++to 0.00391901
Heightened Def Con from 0.00392901 +++++++++++++++++++++to 0.00392901
Heightened Def Con from 0.00393901 +++++++++++++++++++++to 0.00393901
Heightened Def Con from 0.00394901 +++++++++++++++++++++to 0.00394901
Heightened Def Con from 0.00395901 +++++++++++++++++++++to 0.00395901
Heightened Def Con from 0.00396901 +++++++++++++++++++++to 0.00396901
Heightened Def Con from 0.00397901 +++++++++++++++++++++to 0.00397901
Heightened Def Con from 0.00398901 +++++++++++++++++++++to 0.00398901
Heightened Def Con from 0.00399901 +++++++++++++++++++++to 0.00399901
Heightened Def Con from 0.00400901 +++++++++++++++++++++to 0.00400901
Heightened Def Con from 0.00401901 +++++++++++++++++++++to 0.00401901
Heightened Def Con from 0.00402901 +++++++++++++++++++++to 0.00402901
Heightened Def Con from 0.00403901 +++++++++++++++++++++to 0.00403901
Heightened Def Con from 0.00404901 +++++++++++++++++++++to 0.00404901
Heightened Def Con from 0.00405901 +++++++++++++++++++++to 0.00405901
Heightened Def Con from 0.00406901 +++++++++++++++++++++to 0.00406901
Heightened Def Con from 0.00407901 +++++++++++++++++++++to 0.00407901
Heightened Def Con from 0.00408901 +++++++++++++++++++++to 0.00408901
Heightened Def Con from 0.00409901 +++++++++++++++++++++to 0.00409901
Heightened Def Con from 0.00410901 +++++++++++++++++++++to 0.00410901
Heightened Def Con from 0.00411901 +++++++++++++++++++++to 0.00411901
Heightened Def Con from 0.00412901 +++++++++++++++++++++to 0.00412901
Heightened Def Con from 0.00413901 +++++++++++++++++++++to 0.00413901
Heightened Def Con from 0.00414901 +++++++++++++++++++++to 0.00414901
Heightened Def Con from 0.00415901 +++++++++++++++++++++to 0.00415901
Heightened Def Con from 0.00416901 +++++++++++++++++++++to 0.00416901
Heightened Def Con from 0.00417901 +++++++++++++++++++++to 0.00417901
Heightened Def Con from 0.00418901 +++++++++++++++++++++to 0.00418901
Heightened Def Con from 0.00419901 +++++++++++++++++++++to 0.00419901
Heightened Def Con from 0.00420901 +++++++++++++++++++++to 0.00420901
Heightened Def Con from 0.00421901 +++++++++++++++++++++to 0.00421901
Heightened Def Con from 0.00422901 +++++++++++++++++++++to 0.00422901
Heightened Def Con from 0.00423901 +++++++++++++++++++++to 0.00423901
Heightened Def Con from 0.00424901 +++++++++++++++++++++to 0.00424901
Heightened Def Con from 0.00425901 +++++++++++++++++++++to 0.00425901
Heightened Def Con from 0.00426901 +++++++++++++++++++++to 0.00426901
Heightened Def Con from 0.00427901 +++++++++++++++++++++to 0.00427901
Heightened Def Con from 0.00428901 +++++++++++++++++++++to 0.00428901
Heightened Def Con from 0.00429901 +++++++++++++++++++++to 0.00429901
Heightened Def Con from 0.00430901 +++++++++++++++++++++to 0.00430901
Heightened Def Con from 0.00431901 +++++++++++++++++++++to 0.00431901
Heightened Def Con from 0.00432901 +++++++++++++++++++++to 0.00432901
Heightened Def Con from 0.00433901 +++++++++++++++++++++to 0.00433901
Heightened Def Con from 0.00434901 +++++++++++++++++++++to 0.00434901
Heightened Def Con from 0.00435901 +++++++++++++++++++++to 0.00435901
Heightened Def Con from 0.00436901 +++++++++++++++++++++to 0.00436901
Heightened Def Con from 0.00437901 +++++++++++++++++++++to 0.00437901
Heightened Def Con from 0.00438901 +++++++++++++++++++++to 0.00438901
Heightened Def Con from 0.00439901 +++++++++++++++++++++to 0.00439901
Heightened Def Con from 0.00440901 +++++++++++++++++++++to 0.00440901
Heightened Def Con from 0.00441901 +++++++++++++++++++++to 0.00441901
Heightened Def Con from 0.00442901 +++++++++++++++++++++to 0.00442901
Heightened Def Con from 0.00443901 +++++++++++++++++++++to 0.00443901
Heightened Def Con from 0.00444901 +++++++++++++++++++++to 0.00444901
Heightened Def Con from 0.00445901 +++++++++++++++++++++to 0.00445901
Heightened Def Con from 0.00446901 +++++++++++++++++++++to 0.00446901
Heightened Def Con from 0.00447901 +++++++++++++++++++++to 0.00447901
Heightened Def Con from 0.00448901 +++++++++++++++++++++to 0.00448901
Heightened Def Con from 0.00449901 +++++++++++++++++++++to 0.00449901
Heightened Def Con from 0.00450901 +++++++++++++++++++++to 0.00450901
Heightened Def Con from 0.00451901 +++++++++++++++++++++to 0.00451901
Heightened Def Con from 0.00452901 +++++++++++++++++++++to 0.00452901
Heightened Def Con from 0.00453901 +++++++++++++++++++++to 0.00453901
Heightened Def Con from 0.00454901 +++++++++++++++++++++to 0.00454901
Heightened Def Con from 0.00455901 +++++++++++++++++++++to 0.00455901
Heightened Def Con from 0.00456901 +++++++++++++++++++++to 0.00456901
Heightened Def Con from 0.00457901 +++++++++++++++++++++to 0.00457901
Heightened Def Con from 0.00458901 +++++++++++++++++++++to 0.00458901
Heightened Def Con from 0.00459901 +++++++++++++++++++++to 0.00459901
Heightened Def Con from 0.00460901 +++++++++++++++++++++to 0.00460901
Heightened Def Con from 0.00461901 +++++++++++++++++++++to 0.00461901
Heightened Def Con from 0.00462901 +++++++++++++++++++++to 0.00462901
Heightened Def Con from 0.00463901 +++++++++++++++++++++to 0.00463901
Heightened Def Con from 0.00464901 +++++++++++++++++++++to 0.00464901
Heightened Def Con from 0.00465901 +++++++++++++++++++++to 0.00465901
Heightened Def Con from 0.00466901 +++++++++++++++++++++to 0.00466901
Heightened Def Con from 0.00467901 +++++++++++++++++++++to 0.00467901
Heightened Def Con from 0.00468901 +++++++++++++++++++++to 0.00468901
Heightened Def Con from 0.00469901 +++++++++++++++++++++to 0.00469901
Heightened Def Con from 0.00470901 +++++++++++++++++++++to 0.00470901
Heightened Def Con from 0.00471901 +++++++++++++++++++++to 0.00471901
Heightened Def Con from 0.00472901 +++++++++++++++++++++to 0.00472901
Heightened Def Con from 0.00473901 +++++++++++++++++++++to 0.00473901
Heightened Def Con from 0.00474901 +++++++++++++++++++++to 0.00474901
Heightened Def Con from 0.00475901 +++++++++++++++++++++to 0.00475901
Heightened Def Con from 0.00476901 +++++++++++++++++++++to 0.00476901
Heightened Def Con from 0.00477901 +++++++++++++++++++++to 0.00477901
Heightened Def Con from 0.00478901 +++++++++++++++++++++to 0.00478901
Heightened Def Con from 0.00479901 +++++++++++++++++++++to 0.00479901
Heightened Def Con from 0.00480901 +++++++++++++++++++++to 0.00480901
Heightened Def Con from 0.00481901 +++++++++++++++++++++to 0.00481901
Heightened Def Con from 0.00482901 +++++++++++++++++++++to 0.00482901
Heightened Def Con from 0.00483901 +++++++++++++++++++++to 0.00483901
Heightened Def Con from 0.00484901 +++++++++++++++++++++to 0.00484901
Heightened Def Con from 0.00485901 +++++++++++++++++++++to 0.00485901
Heightened Def Con from 0.00486901 +++++++++++++++++++++to 0.00486901
Heightened Def Con from 0.00487901 +++++++++++++++++++++to 0.00487901
Heightened Def Con from 0.00488901 +++++++++++++++++++++to 0.00488901
Heightened Def Con from 0.00489901 +++++++++++++++++++++to 0.00489901
Heightened Def Con from 0.00490901 +++++++++++++++++++++to 0.00490901
Heightened Def Con from 0.00491901 +++++++++++++++++++++to 0.00491901
Heightened Def Con from 0.00492901 +++++++++++++++++++++to 0.00492901
Heightened Def Con from 0.00493901 +++++++++++++++++++++to 0.00493901
Heightened Def Con from 0.00494901 +++++++++++++++++++++to 0.00494901
Heightened Def Con from 0.00495901 +++++++++++++++++++++to 0.00495901
Heightened Def Con from 0.00496901 +++++++++++++++++++++to 0.00496901
Heightened Def Con from 0.00497901 +++++++++++++++++++++to 0.00497901
Heightened Def Con from 0.00498901 +++++++++++++++++++++to 0.00498901
Heightened Def Con from 0.00499901 +++++++++++++++++++++to 0.00499901
Heightened Def Con from 0.00500901 +++++++++++++++++++++to 0.00500901
Heightened Def Con from 0.00501901 +++++++++++++++++++++to 0.00501901
Heightened Def Con from 0.00502901 +++++++++++++++++++++to 0.00502901
Heightened Def Con from 0.00503901 +++++++++++++++++++++to 0.00503901
Heightened Def Con from 0.00504901 +++++++++++++++++++++to 0.00504901
Heightened Def Con from 0.00505901 +++++++++++++++++++++to 0.00505901
Heightened Def Con from 0.00506901 +++++++++++++++++++++to 0.00506901
Heightened Def Con from 0.00507901 +++++++++++++++++++++to 0.00507901
Heightened Def Con from 0.00508901 +++++++++++++++++++++to 0.00508901
Heightened Def Con from 0.00509901 +++++++++++++++++++++to 0.00509901
Heightened Def Con from 0.00510901 +++++++++++++++++++++to 0.00510901
Heightened Def Con from 0.00511901 +++++++++++++++++++++to 0.00511901
Heightened Def Con from 0.00512901 +++++++++++++++++++++to 0.00512901
Heightened Def Con from 0.00513901 +++++++++++++++++++++to 0.00513901
Heightened Def Con from 0.00514901 +++++++++++++++++++++to 0.00514901
Heightened Def Con from 0.00515901 +++++++++++++++++++++to 0.00515901
Heightened Def Con from 0.00516901 +++++++++++++++++++++to 0.00516901
Heightened Def Con from 0.00517901 +++++++++++++++++++++to 0.00517901
Heightened Def Con from 0.00518901 +++++++++++++++++++++to 0.00518901
Heightened Def Con from 0.00519901 +++++++++++++++++++++to 0.00519901
Heightened Def Con from 0.00520901 +++++++++++++++++++++to 0.00520901
Heightened Def Con from 0.00521901 +++++++++++++++++++++to 0.00521901
Heightened Def Con from 0.00522901 +++++++++++++++++++++to 0.00522901
Heightened Def Con from 0.00523901 +++++++++++++++++++++to 0.00523901
Heightened Def Con from 0.00524901 +++++++++++++++++++++to 0.00524901
Heightened Def Con from 0.00525901 +++++++++++++++++++++to 0.00525901
Heightened Def Con from 0.00526901 +++++++++++++++++++++to 0.00526901
Heightened Def Con from 0.00527901 +++++++++++++++++++++to 0.00527901
Heightened Def Con from 0.00528901 +++++++++++++++++++++to 0.00528901
Heightened Def Con from 0.00529901 +++++++++++++++++++++to 0.00529901
Heightened Def Con from 0.00530901 +++++++++++++++++++++to 0.00530901
Heightened Def Con from 0.00531901 +++++++++++++++++++++to 0.00531901
Heightened Def Con from 0.00532901 +++++++++++++++++++++to 0.00532901
Heightened Def Con from 0.00533901 +++++++++++++++++++++to 0.00533901
Heightened Def Con from 0.00534901 +++++++++++++++++++++to 0.00534901
Heightened Def Con from 0.00535901 +++++++++++++++++++++to 0.00535901
Heightened Def Con from 0.00536901 +++++++++++++++++++++to 0.00536901
Heightened Def Con from 0.00537901 +++++++++++++++++++++to 0.00537901
Heightened Def Con from 0.00538901 +++++++++++++++++++++to 0.00538901
Heightened Def Con from 0.00539901 +++++++++++++++++++++to 0.00539901
Heightened Def Con from 0.00540901 +++++++++++++++++++++to 0.00540901
Heightened Def Con from 0.00541901 +++++++++++++++++++++to 0.00541901
Heightened Def Con from 0.00542901 +++++++++++++++++++++to 0.00542901
Heightened Def Con from 0.00543901 +++++++++++++++++++++to 0.00543901
Heightened Def Con from 0.00544901 +++++++++++++++++++++to 0.00544901
Heightened Def Con from 0.00545901 +++++++++++++++++++++to 0.00545901
Heightened Def Con from 0.00546901 +++++++++++++++++++++to 0.00546901
Heightened Def Con from 0.00547901 +++++++++++++++++++++to 0.00547901
Heightened Def Con from 0.00548901 +++++++++++++++++++++to 0.00548901
Heightened Def Con from 0.00549901 +++++++++++++++++++++to 0.00549901
Heightened Def Con from 0.00550901 +++++++++++++++++++++to 0.00550901
Heightened Def Con from 0.00551901 +++++++++++++++++++++to 0.00551901
Heightened Def Con from 0.00552901 +++++++++++++++++++++to 0.00552901
Heightened Def Con from 0.00553901 +++++++++++++++++++++to 0.00553901
Heightened Def Con from 0.00554901 +++++++++++++++++++++to 0.00554901
Heightened Def Con from 0.00555901 +++++++++++++++++++++to 0.00555901
Heightened Def Con from 0.00556901 +++++++++++++++++++++to 0.00556901
Heightened Def Con from 0.00557901 +++++++++++++++++++++to 0.00557901
Heightened Def Con from 0.00558901 +++++++++++++++++++++to 0.00558901
Heightened Def Con from 0.00559901 +++++++++++++++++++++to 0.00559901
Heightened Def Con from 0.00560901 +++++++++++++++++++++to 0.00560901
Heightened Def Con from 0.00561901 +++++++++++++++++++++to 0.00561901
Heightened Def Con from 0.00562901 +++++++++++++++++++++to 0.00562901
Heightened Def Con from 0.00563901 +++++++++++++++++++++to 0.00563901
Heightened Def Con from 0.00564901 +++++++++++++++++++++to 0.00564901
Heightened Def Con from 0.00565901 +++++++++++++++++++++to 0.00565901
Heightened Def Con from 0.00566901 +++++++++++++++++++++to 0.00566901
Heightened Def Con from 0.00567901 +++++++++++++++++++++to 0.00567901
Heightened Def Con from 0.00568901 +++++++++++++++++++++to 0.00568901
Heightened Def Con from 0.00569901 +++++++++++++++++++++to 0.00569901
Heightened Def Con from 0.00570901 +++++++++++++++++++++to 0.00570901
Heightened Def Con from 0.00571901 +++++++++++++++++++++to 0.00571901
Heightened Def Con from 0.00572901 +++++++++++++++++++++to 0.00572901
Heightened Def Con from 0.00573901 +++++++++++++++++++++to 0.00573901
Heightened Def Con from 0.00574901 +++++++++++++++++++++to 0.00574901
Heightened Def Con from 0.00575901 +++++++++++++++++++++to 0.00575901
Heightened Def Con from 0.00576901 +++++++++++++++++++++to 0.00576901
Heightened Def Con from 0.00577901 +++++++++++++++++++++to 0.00577901
Heightened Def Con from 0.00578901 +++++++++++++++++++++to 0.00578901
Heightened Def Con from 0.00579901 +++++++++++++++++++++to 0.00579901
Heightened Def Con from 0.00580901 +++++++++++++++++++++to 0.00580901
Heightened Def Con from 0.00581901 +++++++++++++++++++++to 0.00581901
Heightened Def Con from 0.00582901 +++++++++++++++++++++to 0.00582901
Heightened Def Con from 0.00583901 +++++++++++++++++++++to 0.00583901
Heightened Def Con from 0.00584901 +++++++++++++++++++++to 0.00584901
Heightened Def Con from 0.00585901 +++++++++++++++++++++to 0.00585901
Heightened Def Con from 0.00586901 +++++++++++++++++++++to 0.00586901
Heightened Def Con from 0.00587901 +++++++++++++++++++++to 0.00587901
Heightened Def Con from 0.00588901 +++++++++++++++++++++to 0.00588901
Heightened Def Con from 0.00589901 +++++++++++++++++++++to 0.00589901
Heightened Def Con from 0.00590901 +++++++++++++++++++++to 0.00590901
Heightened Def Con from 0.00591901 +++++++++++++++++++++to 0.00591901
Heightened Def Con from 0.00592901 +++++++++++++++++++++to 0.00592901
Heightened Def Con from 0.00593901 +++++++++++++++++++++to 0.00593901
Heightened Def Con from 0.00594901 +++++++++++++++++++++to 0.00594901
Heightened Def Con from 0.00595901 +++++++++++++++++++++to 0.00595901
Heightened Def Con from 0.00596901 +++++++++++++++++++++to 0.00596901
Heightened Def Con from 0.00597901 +++++++++++++++++++++to 0.00597901
Heightened Def Con from 0.00598901 +++++++++++++++++++++to 0.00598901
Heightened Def Con from 0.00599901 +++++++++++++++++++++to 0.00599901
Heightened Def Con from 0.00600901 +++++++++++++++++++++to 0.00600901
Heightened Def Con from 0.00601901 +++++++++++++++++++++to 0.00601901
Heightened Def Con from 0.00602901 +++++++++++++++++++++to 0.00602901
Heightened Def Con from 0.00603901 +++++++++++++++++++++to 0.00603901
Heightened Def Con from 0.00604901 +++++++++++++++++++++to 0.00604901
Heightened Def Con from 0.00605901 +++++++++++++++++++++to 0.00605901
Heightened Def Con from 0.00606901 +++++++++++++++++++++to 0.00606901
Heightened Def Con from 0.00607901 +++++++++++++++++++++to 0.00607901
Heightened Def Con from 0.00608901 +++++++++++++++++++++to 0.00608901
Heightened Def Con from 0.00609901 +++++++++++++++++++++to 0.00609901
Heightened Def Con from 0.00610901 +++++++++++++++++++++to 0.00610901
Heightened Def Con from 0.00611901 +++++++++++++++++++++to 0.00611901
Heightened Def Con from 0.00612901 +++++++++++++++++++++to 0.00612901
Heightened Def Con from 0.00613901 +++++++++++++++++++++to 0.00613901
Heightened Def Con from 0.00614901 +++++++++++++++++++++to 0.00614901
Heightened Def Con from 0.00615901 +++++++++++++++++++++to 0.00615901
Heightened Def Con from 0.00616901 +++++++++++++++++++++to 0.00616901
Heightened Def Con from 0.00617901 +++++++++++++++++++++to 0.00617901
Heightened Def Con from 0.00618901 +++++++++++++++++++++to 0.00618901
Heightened Def Con from 0.00619901 +++++++++++++++++++++to 0.00619901
Heightened Def Con from 0.00620901 +++++++++++++++++++++to 0.00620901
Heightened Def Con from 0.00621901 +++++++++++++++++++++to 0.00621901
Heightened Def Con from 0.00622901 +++++++++++++++++++++to 0.00622901
Heightened Def Con from 0.00623901 +++++++++++++++++++++to 0.00623901
Heightened Def Con from 0.00624901 +++++++++++++++++++++to 0.00624901
Heightened Def Con from 0.00625901 +++++++++++++++++++++to 0.00625901
Heightened Def Con from 0.00626901 +++++++++++++++++++++to 0.00626901
Heightened Def Con from 0.00627901 +++++++++++++++++++++to 0.00627901
Heightened Def Con from 0.00628901 +++++++++++++++++++++to 0.00628901
Heightened Def Con from 0.00629901 +++++++++++++++++++++to 0.00629901
Heightened Def Con from 0.00630901 +++++++++++++++++++++to 0.00630901
Heightened Def Con from 0.00631901 +++++++++++++++++++++to 0.00631901
Heightened Def Con from 0.00632901 +++++++++++++++++++++to 0.00632901
Heightened Def Con from 0.00633901 +++++++++++++++++++++to 0.00633901
Heightened Def Con from 0.00634901 +++++++++++++++++++++to 0.00634901
Heightened Def Con from 0.00635901 +++++++++++++++++++++to 0.00635901
Heightened Def Con from 0.00636901 +++++++++++++++++++++to 0.00636901
Heightened Def Con from 0.00637901 +++++++++++++++++++++to 0.00637901
Heightened Def Con from 0.00638901 +++++++++++++++++++++to 0.00638901
Heightened Def Con from 0.00639901 +++++++++++++++++++++to 0.00639901
Heightened Def Con from 0.00640901 +++++++++++++++++++++to 0.00640901
Heightened Def Con from 0.00641901 +++++++++++++++++++++to 0.00641901
Heightened Def Con from 0.00642901 +++++++++++++++++++++to 0.00642901
Heightened Def Con from 0.00643901 +++++++++++++++++++++to 0.00643901
Heightened Def Con from 0.00644901 +++++++++++++++++++++to 0.00644901
Heightened Def Con from 0.00645901 +++++++++++++++++++++to 0.00645901
Heightened Def Con from 0.00646901 +++++++++++++++++++++to 0.00646901
Heightened Def Con from 0.00647901 +++++++++++++++++++++to 0.00647901
Heightened Def Con from 0.00648901 +++++++++++++++++++++to 0.00648901
Heightened Def Con from 0.00649901 +++++++++++++++++++++to 0.00649901
Heightened Def Con from 0.00650901 +++++++++++++++++++++to 0.00650901
Heightened Def Con from 0.00651901 +++++++++++++++++++++to 0.00651901
Heightened Def Con from 0.00652901 +++++++++++++++++++++to 0.00652901
Heightened Def Con from 0.00653901 +++++++++++++++++++++to 0.00653901
Heightened Def Con from 0.00654901 +++++++++++++++++++++to 0.00654901
Heightened Def Con from 0.00655901 +++++++++++++++++++++to 0.00655901
Heightened Def Con from 0.00656901 +++++++++++++++++++++to 0.00656901
Heightened Def Con from 0.00657901 +++++++++++++++++++++to 0.00657901
Heightened Def Con from 0.00658901 +++++++++++++++++++++to 0.00658901
Heightened Def Con from 0.00659901 +++++++++++++++++++++to 0.00659901
Heightened Def Con from 0.00660901 +++++++++++++++++++++to 0.00660901
Heightened Def Con from 0.00661901 +++++++++++++++++++++to 0.00661901
Heightened Def Con from 0.00662901 +++++++++++++++++++++to 0.00662901
Heightened Def Con from 0.00663901 +++++++++++++++++++++to 0.00663901
Heightened Def Con from 0.00664901 +++++++++++++++++++++to 0.00664901
Heightened Def Con from 0.00665901 +++++++++++++++++++++to 0.00665901
Heightened Def Con from 0.00666901 +++++++++++++++++++++to 0.00666901
Heightened Def Con from 0.00667901 +++++++++++++++++++++to 0.00667901
Heightened Def Con from 0.00668901 +++++++++++++++++++++to 0.00668901
Heightened Def Con from 0.00669901 +++++++++++++++++++++to 0.00669901
Heightened Def Con from 0.00670901 +++++++++++++++++++++to 0.00670901
Heightened Def Con from 0.00671901 +++++++++++++++++++++to 0.00671901
Heightened Def Con from 0.00672901 +++++++++++++++++++++to 0.00672901
Heightened Def Con from 0.00673901 +++++++++++++++++++++to 0.00673901
Heightened Def Con from 0.00674901 +++++++++++++++++++++to 0.00674901
Heightened Def Con from 0.00675901 +++++++++++++++++++++to 0.00675901
Heightened Def Con from 0.00676901 +++++++++++++++++++++to 0.00676901
Heightened Def Con from 0.00677901 +++++++++++++++++++++to 0.00677901
Heightened Def Con from 0.00678901 +++++++++++++++++++++to 0.00678901
Heightened Def Con from 0.00679901 +++++++++++++++++++++to 0.00679901
Heightened Def Con from 0.00680901 +++++++++++++++++++++to 0.00680901
Heightened Def Con from 0.00681901 +++++++++++++++++++++to 0.00681901
Heightened Def Con from 0.00682901 +++++++++++++++++++++to 0.00682901
Heightened Def Con from 0.00683901 +++++++++++++++++++++to 0.00683901
Heightened Def Con from 0.00684901 +++++++++++++++++++++to 0.00684901
Heightened Def Con from 0.00685901 +++++++++++++++++++++to 0.00685901
Heightened Def Con from 0.00686901 +++++++++++++++++++++to 0.00686901
Heightened Def Con from 0.00687901 +++++++++++++++++++++to 0.00687901
Heightened Def Con from 0.00688901 +++++++++++++++++++++to 0.00688901
Heightened Def Con from 0.00689901 +++++++++++++++++++++to 0.00689901
Heightened Def Con from 0.00690901 +++++++++++++++++++++to 0.00690901
Heightened Def Con from 0.00691901 +++++++++++++++++++++to 0.00691901
Heightened Def Con from 0.00692901 +++++++++++++++++++++to 0.00692901
Heightened Def Con from 0.00693901 +++++++++++++++++++++to 0.00693901
Heightened Def Con from 0.00694901 +++++++++++++++++++++to 0.00694901
Heightened Def Con from 0.00695901 +++++++++++++++++++++to 0.00695901
Heightened Def Con from 0.00696901 +++++++++++++++++++++to 0.00696901
Heightened Def Con from 0.00697901 +++++++++++++++++++++to 0.00697901
Heightened Def Con from 0.00698901 +++++++++++++++++++++to 0.00698901
Heightened Def Con from 0.00699901 +++++++++++++++++++++to 0.00699901
Heightened Def Con from 0.00700901 +++++++++++++++++++++to 0.00700901
Heightened Def Con from 0.00701901 +++++++++++++++++++++to 0.00701901
Heightened Def Con from 0.00702901 +++++++++++++++++++++to 0.00702901
Heightened Def Con from 0.00703901 +++++++++++++++++++++to 0.00703901
Heightened Def Con from 0.00704901 +++++++++++++++++++++to 0.00704901
Heightened Def Con from 0.00705901 +++++++++++++++++++++to 0.00705901
Heightened Def Con from 0.00706901 +++++++++++++++++++++to 0.00706901
Heightened Def Con from 0.00707901 +++++++++++++++++++++to 0.00707901
Heightened Def Con from 0.00708901 +++++++++++++++++++++to 0.00708901
Heightened Def Con from 0.00709901 +++++++++++++++++++++to 0.00709901
Heightened Def Con from 0.00710901 +++++++++++++++++++++to 0.00710901
Heightened Def Con from 0.00711901 +++++++++++++++++++++to 0.00711901
Heightened Def Con from 0.00712901 +++++++++++++++++++++to 0.00712901
Heightened Def Con from 0.00713901 +++++++++++++++++++++to 0.00713901
Heightened Def Con from 0.00714901 +++++++++++++++++++++to 0.00714901
Heightened Def Con from 0.00715901 +++++++++++++++++++++to 0.00715901
Heightened Def Con from 0.00716901 +++++++++++++++++++++to 0.00716901
Heightened Def Con from 0.00717901 +++++++++++++++++++++to 0.00717901
Heightened Def Con from 0.00718901 +++++++++++++++++++++to 0.00718901
Heightened Def Con from 0.00719901 +++++++++++++++++++++to 0.00719901
Heightened Def Con from 0.00720901 +++++++++++++++++++++to 0.00720901
Heightened Def Con from 0.00721901 +++++++++++++++++++++to 0.00721901
Heightened Def Con from 0.00722901 +++++++++++++++++++++to 0.00722901
Heightened Def Con from 0.00723901 +++++++++++++++++++++to 0.00723901
Heightened Def Con from 0.00724901 +++++++++++++++++++++to 0.00724901
Heightened Def Con from 0.00725901 +++++++++++++++++++++to 0.00725901
Heightened Def Con from 0.00726901 +++++++++++++++++++++to 0.00726901
Heightened Def Con from 0.00727901 +++++++++++++++++++++to 0.00727901
Heightened Def Con from 0.00728901 +++++++++++++++++++++to 0.00728901
Heightened Def Con from 0.00729901 +++++++++++++++++++++to 0.00729901
Heightened Def Con from 0.00730901 +++++++++++++++++++++to 0.00730901
Heightened Def Con from 0.00731901 +++++++++++++++++++++to 0.00731901
Heightened Def Con from 0.00732901 +++++++++++++++++++++to 0.00732901
Heightened Def Con from 0.00733901 +++++++++++++++++++++to 0.00733901
Heightened Def Con from 0.00734901 +++++++++++++++++++++to 0.00734901
Heightened Def Con from 0.00735901 +++++++++++++++++++++to 0.00735901
Heightened Def Con from 0.00736901 +++++++++++++++++++++to 0.00736901
Heightened Def Con from 0.00737901 +++++++++++++++++++++to 0.00737901
Heightened Def Con from 0.00738901 +++++++++++++++++++++to 0.00738901
Heightened Def Con from 0.00739901 +++++++++++++++++++++to 0.00739901
Heightened Def Con from 0.00740901 +++++++++++++++++++++to 0.00740901
Heightened Def Con from 0.00741901 +++++++++++++++++++++to 0.00741901
Heightened Def Con from 0.00742901 +++++++++++++++++++++to 0.00742901
Heightened Def Con from 0.00743901 +++++++++++++++++++++to 0.00743901
Heightened Def Con from 0.00744901 +++++++++++++++++++++to 0.00744901
Heightened Def Con from 0.00745901 +++++++++++++++++++++to 0.00745901
Heightened Def Con from 0.00746901 +++++++++++++++++++++to 0.00746901
Heightened Def Con from 0.00747901 +++++++++++++++++++++to 0.00747901
Heightened Def Con from 0.00748901 +++++++++++++++++++++to 0.00748901
Heightened Def Con from 0.00749901 +++++++++++++++++++++to 0.00749901
Heightened Def Con from 0.00750901 +++++++++++++++++++++to 0.00750901
Heightened Def Con from 0.00751901 +++++++++++++++++++++to 0.00751901
Heightened Def Con from 0.00752901 +++++++++++++++++++++to 0.00752901
Heightened Def Con from 0.00753901 +++++++++++++++++++++to 0.00753901
Heightened Def Con from 0.00754901 +++++++++++++++++++++to 0.00754901
Heightened Def Con from 0.00755901 +++++++++++++++++++++to 0.00755901
Heightened Def Con from 0.00756901 +++++++++++++++++++++to 0.00756901
Heightened Def Con from 0.00757901 +++++++++++++++++++++to 0.00757901
Heightened Def Con from 0.00758901 +++++++++++++++++++++to 0.00758901
Heightened Def Con from 0.00759901 +++++++++++++++++++++to 0.00759901
Heightened Def Con from 0.00760901 +++++++++++++++++++++to 0.00760901
Heightened Def Con from 0.00761901 +++++++++++++++++++++to 0.00761901
Heightened Def Con from 0.00762901 +++++++++++++++++++++to 0.00762901
Heightened Def Con from 0.00763901 +++++++++++++++++++++to 0.00763901
Heightened Def Con from 0.00764901 +++++++++++++++++++++to 0.00764901
Heightened Def Con from 0.00765901 +++++++++++++++++++++to 0.00765901
Heightened Def Con from 0.00766901 +++++++++++++++++++++to 0.00766901
Heightened Def Con from 0.00767901 +++++++++++++++++++++to 0.00767901
Heightened Def Con from 0.00768901 +++++++++++++++++++++to 0.00768901
Heightened Def Con from 0.00769901 +++++++++++++++++++++to 0.00769901
Heightened Def Con from 0.00770901 +++++++++++++++++++++to 0.00770901
Heightened Def Con from 0.00771901 +++++++++++++++++++++to 0.00771901
Heightened Def Con from 0.00772901 +++++++++++++++++++++to 0.00772901
Heightened Def Con from 0.00773901 +++++++++++++++++++++to 0.00773901
Heightened Def Con from 0.00774901 +++++++++++++++++++++to 0.00774901
Heightened Def Con from 0.00775901 +++++++++++++++++++++to 0.00775901
Heightened Def Con from 0.00776901 +++++++++++++++++++++to 0.00776901
Heightened Def Con from 0.00777901 +++++++++++++++++++++to 0.00777901
Heightened Def Con from 0.00778901 +++++++++++++++++++++to 0.00778901
Heightened Def Con from 0.00779901 +++++++++++++++++++++to 0.00779901
Heightened Def Con from 0.00780901 +++++++++++++++++++++to 0.00780901
Heightened Def Con from 0.00781901 +++++++++++++++++++++to 0.00781901
Heightened Def Con from 0.00782901 +++++++++++++++++++++to 0.00782901
Heightened Def Con from 0.00783901 +++++++++++++++++++++to 0.00783901
Heightened Def Con from 0.00784901 +++++++++++++++++++++to 0.00784901
Heightened Def Con from 0.00785901 +++++++++++++++++++++to 0.00785901
Heightened Def Con from 0.00786901 +++++++++++++++++++++to 0.00786901
Heightened Def Con from 0.00787901 +++++++++++++++++++++to 0.00787901
Heightened Def Con from 0.00788901 +++++++++++++++++++++to 0.00788901
Heightened Def Con from 0.00789901 +++++++++++++++++++++to 0.00789901
Heightened Def Con from 0.00790901 +++++++++++++++++++++to 0.00790901
Heightened Def Con from 0.00791901 +++++++++++++++++++++to 0.00791901
Heightened Def Con from 0.00792901 +++++++++++++++++++++to 0.00792901
Heightened Def Con from 0.00793901 +++++++++++++++++++++to 0.00793901
Heightened Def Con from 0.00794901 +++++++++++++++++++++to 0.00794901
Heightened Def Con from 0.00795901 +++++++++++++++++++++to 0.00795901
Heightened Def Con from 0.00796901 +++++++++++++++++++++to 0.00796901
Heightened Def Con from 0.00797901 +++++++++++++++++++++to 0.00797901
Heightened Def Con from 0.00798901 +++++++++++++++++++++to 0.00798901
Heightened Def Con from 0.00799901 +++++++++++++++++++++to 0.00799901
Heightened Def Con from 0.00800901 +++++++++++++++++++++to 0.00800901
Heightened Def Con from 0.00801901 +++++++++++++++++++++to 0.00801901
Heightened Def Con from 0.00802901 +++++++++++++++++++++to 0.00802901
Heightened Def Con from 0.00803901 +++++++++++++++++++++to 0.00803901
Heightened Def Con from 0.00804901 +++++++++++++++++++++to 0.00804901
Heightened Def Con from 0.00805901 +++++++++++++++++++++to 0.00805901
Heightened Def Con from 0.00806901 +++++++++++++++++++++to 0.00806901
Heightened Def Con from 0.00807901 +++++++++++++++++++++to 0.00807901
Heightened Def Con from 0.00808901 +++++++++++++++++++++to 0.00808901
Heightened Def Con from 0.00809901 +++++++++++++++++++++to 0.00809901
Heightened Def Con from 0.00810901 +++++++++++++++++++++to 0.00810901
Heightened Def Con from 0.00811901 +++++++++++++++++++++to 0.00811901
Heightened Def Con from 0.00812901 +++++++++++++++++++++to 0.00812901
Heightened Def Con from 0.00813901 +++++++++++++++++++++to 0.00813901
Heightened Def Con from 0.00814901 +++++++++++++++++++++to 0.00814901
Heightened Def Con from 0.00815901 +++++++++++++++++++++to 0.00815901
Heightened Def Con from 0.00816901 +++++++++++++++++++++to 0.00816901
Heightened Def Con from 0.00817901 +++++++++++++++++++++to 0.00817901
Heightened Def Con from 0.00818901 +++++++++++++++++++++to 0.00818901
Heightened Def Con from 0.00819901 +++++++++++++++++++++to 0.00819901
Heightened Def Con from 0.00820901 +++++++++++++++++++++to 0.00820901
Heightened Def Con from 0.00821901 +++++++++++++++++++++to 0.00821901
Heightened Def Con from 0.00822901 +++++++++++++++++++++to 0.00822901
Heightened Def Con from 0.00823901 +++++++++++++++++++++to 0.00823901
Heightened Def Con from 0.00824901 +++++++++++++++++++++to 0.00824901
Heightened Def Con from 0.00825901 +++++++++++++++++++++to 0.00825901
Heightened Def Con from 0.00826901 +++++++++++++++++++++to 0.00826901
Heightened Def Con from 0.00827901 +++++++++++++++++++++to 0.00827901
Heightened Def Con from 0.00828901 +++++++++++++++++++++to 0.00828901
Heightened Def Con from 0.00829901 +++++++++++++++++++++to 0.00829901
Heightened Def Con from 0.00830901 +++++++++++++++++++++to 0.00830901
Heightened Def Con from 0.00831901 +++++++++++++++++++++to 0.00831901
Heightened Def Con from 0.00832901 +++++++++++++++++++++to 0.00832901
Heightened Def Con from 0.00833901 +++++++++++++++++++++to 0.00833901
Heightened Def Con from 0.00834901 +++++++++++++++++++++to 0.00834901
Heightened Def Con from 0.00835901 +++++++++++++++++++++to 0.00835901
Heightened Def Con from 0.00836901 +++++++++++++++++++++to 0.00836901
Heightened Def Con from 0.00837901 +++++++++++++++++++++to 0.00837901
Heightened Def Con from 0.00838901 +++++++++++++++++++++to 0.00838901
Heightened Def Con from 0.00839901 +++++++++++++++++++++to 0.00839901
Heightened Def Con from 0.00840901 +++++++++++++++++++++to 0.00840901
Heightened Def Con from 0.00841901 +++++++++++++++++++++to 0.00841901
Heightened Def Con from 0.00842901 +++++++++++++++++++++to 0.00842901
Heightened Def Con from 0.00843901 +++++++++++++++++++++to 0.00843901
Heightened Def Con from 0.00844901 +++++++++++++++++++++to 0.00844901
Heightened Def Con from 0.00845901 +++++++++++++++++++++to 0.00845901
Heightened Def Con from 0.00846901 +++++++++++++++++++++to 0.00846901
Heightened Def Con from 0.00847901 +++++++++++++++++++++to 0.00847901
Heightened Def Con from 0.00848901 +++++++++++++++++++++to 0.00848901
Heightened Def Con from 0.00849901 +++++++++++++++++++++to 0.00849901
Heightened Def Con from 0.00850901 +++++++++++++++++++++to 0.00850901
Heightened Def Con from 0.00851901 +++++++++++++++++++++to 0.00851901
Heightened Def Con from 0.00852901 +++++++++++++++++++++to 0.00852901
Heightened Def Con from 0.00853901 +++++++++++++++++++++to 0.00853901
Heightened Def Con from 0.00854901 +++++++++++++++++++++to 0.00854901
Heightened Def Con from 0.00855901 +++++++++++++++++++++to 0.00855901
Heightened Def Con from 0.00856901 +++++++++++++++++++++to 0.00856901
Heightened Def Con from 0.00857901 +++++++++++++++++++++to 0.00857901
Heightened Def Con from 0.00858901 +++++++++++++++++++++to 0.00858901
Heightened Def Con from 0.00859901 +++++++++++++++++++++to 0.00859901
Heightened Def Con from 0.00860901 +++++++++++++++++++++to 0.00860901
Heightened Def Con from 0.00861901 +++++++++++++++++++++to 0.00861901
Heightened Def Con from 0.00862901 +++++++++++++++++++++to 0.00862901
Heightened Def Con from 0.00863901 +++++++++++++++++++++to 0.00863901
Heightened Def Con from 0.00864901 +++++++++++++++++++++to 0.00864901
Heightened Def Con from 0.00865901 +++++++++++++++++++++to 0.00865901
Heightened Def Con from 0.00866901 +++++++++++++++++++++to 0.00866901
Heightened Def Con from 0.00867901 +++++++++++++++++++++to 0.00867901
Heightened Def Con from 0.00868901 +++++++++++++++++++++to 0.00868901
Heightened Def Con from 0.00869901 +++++++++++++++++++++to 0.00869901
Heightened Def Con from 0.00870901 +++++++++++++++++++++to 0.00870901
Heightened Def Con from 0.00871901 +++++++++++++++++++++to 0.00871901
Heightened Def Con from 0.00872901 +++++++++++++++++++++to 0.00872901
Heightened Def Con from 0.00873901 +++++++++++++++++++++to 0.00873901
Heightened Def Con from 0.00874901 +++++++++++++++++++++to 0.00874901
Heightened Def Con from 0.00875901 +++++++++++++++++++++to 0.00875901
Heightened Def Con from 0.00876901 +++++++++++++++++++++to 0.00876901
Heightened Def Con from 0.00877901 +++++++++++++++++++++to 0.00877901
Heightened Def Con from 0.00878901 +++++++++++++++++++++to 0.00878901
Heightened Def Con from 0.00879901 +++++++++++++++++++++to 0.00879901
Heightened Def Con from 0.00880901 +++++++++++++++++++++to 0.00880901
Heightened Def Con from 0.00881901 +++++++++++++++++++++to 0.00881901
Heightened Def Con from 0.00882901 +++++++++++++++++++++to 0.00882901
Heightened Def Con from 0.00883901 +++++++++++++++++++++to 0.00883901
Heightened Def Con from 0.00884901 +++++++++++++++++++++to 0.00884901
Heightened Def Con from 0.00885901 +++++++++++++++++++++to 0.00885901
Heightened Def Con from 0.00886901 +++++++++++++++++++++to 0.00886901
Heightened Def Con from 0.00887901 +++++++++++++++++++++to 0.00887901
Heightened Def Con from 0.00888901 +++++++++++++++++++++to 0.00888901
Heightened Def Con from 0.00889901 +++++++++++++++++++++to 0.00889901
Heightened Def Con from 0.00890901 +++++++++++++++++++++to 0.00890901
Heightened Def Con from 0.00891901 +++++++++++++++++++++to 0.00891901
Heightened Def Con from 0.00892901 +++++++++++++++++++++to 0.00892901
Heightened Def Con from 0.00893901 +++++++++++++++++++++to 0.00893901
Heightened Def Con from 0.00894901 +++++++++++++++++++++to 0.00894901
Heightened Def Con from 0.00895901 +++++++++++++++++++++to 0.00895901
Heightened Def Con from 0.00896901 +++++++++++++++++++++to 0.00896901
Heightened Def Con from 0.00897901 +++++++++++++++++++++to 0.00897901
Heightened Def Con from 0.00898901 +++++++++++++++++++++to 0.00898901
Heightened Def Con from 0.00899901 +++++++++++++++++++++to 0.00899901
Heightened Def Con from 0.00900901 +++++++++++++++++++++to 0.00900901
Heightened Def Con from 0.00901901 +++++++++++++++++++++to 0.00901901
Heightened Def Con from 0.00902901 +++++++++++++++++++++to 0.00902901
Heightened Def Con from 0.00903901 +++++++++++++++++++++to 0.00903901
Heightened Def Con from 0.00904901 +++++++++++++++++++++to 0.00904901
Heightened Def Con from 0.00905901 +++++++++++++++++++++to 0.00905901
Heightened Def Con from 0.00906901 +++++++++++++++++++++to 0.00906901
Heightened Def Con from 0.00907901 +++++++++++++++++++++to 0.00907901
Heightened Def Con from 0.00908901 +++++++++++++++++++++to 0.00908901
Heightened Def Con from 0.00909901 +++++++++++++++++++++to 0.00909901
Heightened Def Con from 0.00910901 +++++++++++++++++++++to 0.00910901
Heightened Def Con from 0.00911901 +++++++++++++++++++++to 0.00911901
Heightened Def Con from 0.00912901 +++++++++++++++++++++to 0.00912901
Heightened Def Con from 0.00913901 +++++++++++++++++++++to 0.00913901
Heightened Def Con from 0.00914901 +++++++++++++++++++++to 0.00914901
Heightened Def Con from 0.00915901 +++++++++++++++++++++to 0.00915901
Heightened Def Con from 0.00916901 +++++++++++++++++++++to 0.00916901
Heightened Def Con from 0.00917901 +++++++++++++++++++++to 0.00917901
Heightened Def Con from 0.00918901 +++++++++++++++++++++to 0.00918901
Heightened Def Con from 0.00919901 +++++++++++++++++++++to 0.00919901
Heightened Def Con from 0.00920901 +++++++++++++++++++++to 0.00920901
Heightened Def Con from 0.00921901 +++++++++++++++++++++to 0.00921901
Heightened Def Con from 0.00922901 +++++++++++++++++++++to 0.00922901
Heightened Def Con from 0.00923901 +++++++++++++++++++++to 0.00923901
Heightened Def Con from 0.00924901 +++++++++++++++++++++to 0.00924901
Heightened Def Con from 0.00925901 +++++++++++++++++++++to 0.00925901
Heightened Def Con from 0.00926901 +++++++++++++++++++++to 0.00926901
Heightened Def Con from 0.00927901 +++++++++++++++++++++to 0.00927901
Heightened Def Con from 0.00928901 +++++++++++++++++++++to 0.00928901
Heightened Def Con from 0.00929901 +++++++++++++++++++++to 0.00929901
Heightened Def Con from 0.00930901 +++++++++++++++++++++to 0.00930901
Heightened Def Con from 0.00931901 +++++++++++++++++++++to 0.00931901
Heightened Def Con from 0.00932901 +++++++++++++++++++++to 0.00932901
Heightened Def Con from 0.00933901 +++++++++++++++++++++to 0.00933901
Heightened Def Con from 0.00934901 +++++++++++++++++++++to 0.00934901
Heightened Def Con from 0.00935901 +++++++++++++++++++++to 0.00935901
Heightened Def Con from 0.00936901 +++++++++++++++++++++to 0.00936901
Heightened Def Con from 0.00937901 +++++++++++++++++++++to 0.00937901
Heightened Def Con from 0.00938901 +++++++++++++++++++++to 0.00938901
Heightened Def Con from 0.00939901 +++++++++++++++++++++to 0.00939901
Heightened Def Con from 0.00940901 +++++++++++++++++++++to 0.00940901
Heightened Def Con from 0.00941901 +++++++++++++++++++++to 0.00941901
Heightened Def Con from 0.00942901 +++++++++++++++++++++to 0.00942901
Heightened Def Con from 0.00943901 +++++++++++++++++++++to 0.00943901
Heightened Def Con from 0.00944901 +++++++++++++++++++++to 0.00944901
Heightened Def Con from 0.00945901 +++++++++++++++++++++to 0.00945901
Heightened Def Con from 0.00946901 +++++++++++++++++++++to 0.00946901
Heightened Def Con from 0.00947901 +++++++++++++++++++++to 0.00947901
Heightened Def Con from 0.00948901 +++++++++++++++++++++to 0.00948901
Heightened Def Con from 0.00949901 +++++++++++++++++++++to 0.00949901
Heightened Def Con from 0.00950901 +++++++++++++++++++++to 0.00950901
Heightened Def Con from 0.00951901 +++++++++++++++++++++to 0.00951901
Heightened Def Con from 0.00952901 +++++++++++++++++++++to 0.00952901
Heightened Def Con from 0.00953901 +++++++++++++++++++++to 0.00953901
Heightened Def Con from 0.00954901 +++++++++++++++++++++to 0.00954901
Heightened Def Con from 0.00955901 +++++++++++++++++++++to 0.00955901
Heightened Def Con from 0.00956901 +++++++++++++++++++++to 0.00956901
Heightened Def Con from 0.00957901 +++++++++++++++++++++to 0.00957901
Heightened Def Con from 0.00958901 +++++++++++++++++++++to 0.00958901
Heightened Def Con from 0.00959901 +++++++++++++++++++++to 0.00959901
Heightened Def Con from 0.00960901 +++++++++++++++++++++to 0.00960901
Heightened Def Con from 0.00961901 +++++++++++++++++++++to 0.00961901
Heightened Def Con from 0.00962901 +++++++++++++++++++++to 0.00962901
Heightened Def Con from 0.00963901 +++++++++++++++++++++to 0.00963901
Heightened Def Con from 0.00964901 +++++++++++++++++++++to 0.00964901
Heightened Def Con from 0.00965901 +++++++++++++++++++++to 0.00965901
Heightened Def Con from 0.00966901 +++++++++++++++++++++to 0.00966901
Heightened Def Con from 0.00967901 +++++++++++++++++++++to 0.00967901
Heightened Def Con from 0.00968901 +++++++++++++++++++++to 0.00968901
Heightened Def Con from 0.00969901 +++++++++++++++++++++to 0.00969901
Heightened Def Con from 0.00970901 +++++++++++++++++++++to 0.00970901
Heightened Def Con from 0.00971901 +++++++++++++++++++++to 0.00971901
Heightened Def Con from 0.00972901 +++++++++++++++++++++to 0.00972901
Heightened Def Con from 0.00973901 +++++++++++++++++++++to 0.00973901
Heightened Def Con from 0.00974901 +++++++++++++++++++++to 0.00974901
Heightened Def Con from 0.00975901 +++++++++++++++++++++to 0.00975901
Heightened Def Con from 0.00976901 +++++++++++++++++++++to 0.00976901
Heightened Def Con from 0.00977901 +++++++++++++++++++++to 0.00977901
Heightened Def Con from 0.00978901 +++++++++++++++++++++to 0.00978901
Heightened Def Con from 0.00979901 +++++++++++++++++++++to 0.00979901
Heightened Def Con from 0.00980901 +++++++++++++++++++++to 0.00980901
Heightened Def Con from 0.00981901 +++++++++++++++++++++to 0.00981901
Heightened Def Con from 0.00982901 +++++++++++++++++++++to 0.00982901
Heightened Def Con from 0.00983901 +++++++++++++++++++++to 0.00983901
Heightened Def Con from 0.00984901 +++++++++++++++++++++to 0.00984901
Heightened Def Con from 0.00985901 +++++++++++++++++++++to 0.00985901
Heightened Def Con from 0.00986901 +++++++++++++++++++++to 0.00986901
Heightened Def Con from 0.00987901 +++++++++++++++++++++to 0.00987901
Heightened Def Con from 0.00988901 +++++++++++++++++++++to 0.00988901
Heightened Def Con from 0.00989901 +++++++++++++++++++++to 0.00989901
Heightened Def Con from 0.00990901 +++++++++++++++++++++to 0.00990901
Heightened Def Con from 0.00991901 +++++++++++++++++++++to 0.00991901
Heightened Def Con from 0.00992901 +++++++++++++++++++++to 0.00992901
Heightened Def Con from 0.00993901 +++++++++++++++++++++to 0.00993901
Heightened Def Con from 0.00994901 +++++++++++++++++++++to 0.00994901
Heightened Def Con from 0.00995901 +++++++++++++++++++++to 0.00995901
Heightened Def Con from 0.00996901 +++++++++++++++++++++to 0.00996901
Heightened Def Con from 0.00997901 +++++++++++++++++++++to 0.00997901
Heightened Def Con from 0.00998901 +++++++++++++++++++++to 0.00998901
Heightened Def Con from 0.00999901 +++++++++++++++++++++to 0.00999901
Heightened Def Con from 0.010009 +++++++++++++++++++++to 0.010009
Heightened Def Con from 0.010019 +++++++++++++++++++++to 0.010019
Heightened Def Con from 0.010029 +++++++++++++++++++++to 0.010029
Heightened Def Con from 0.010039 +++++++++++++++++++++to 0.010039
Heightened Def Con from 0.010049 +++++++++++++++++++++to 0.010049
Heightened Def Con from 0.010059 +++++++++++++++++++++to 0.010059
Heightened Def Con from 0.010069 +++++++++++++++++++++to 0.010069
Heightened Def Con from 0.010079 +++++++++++++++++++++to 0.010079
Heightened Def Con from 0.010089 +++++++++++++++++++++to 0.010089
Heightened Def Con from 0.010099 +++++++++++++++++++++to 0.010099
Heightened Def Con from 0.010109 +++++++++++++++++++++to 0.010109
Heightened Def Con from 0.010119 +++++++++++++++++++++to 0.010119
Heightened Def Con from 0.010129 +++++++++++++++++++++to 0.010129
Heightened Def Con from 0.010139 +++++++++++++++++++++to 0.010139
Heightened Def Con from 0.010149 +++++++++++++++++++++to 0.010149
Heightened Def Con from 0.010159 +++++++++++++++++++++to 0.010159
Heightened Def Con from 0.010169 +++++++++++++++++++++to 0.010169
Heightened Def Con from 0.010179 +++++++++++++++++++++to 0.010179
Heightened Def Con from 0.010189 +++++++++++++++++++++to 0.010189
Heightened Def Con from 0.010199 +++++++++++++++++++++to 0.010199
Heightened Def Con from 0.010209 +++++++++++++++++++++to 0.010209
Heightened Def Con from 0.010219 +++++++++++++++++++++to 0.010219
Heightened Def Con from 0.010229 +++++++++++++++++++++to 0.010229
Heightened Def Con from 0.010239 +++++++++++++++++++++to 0.010239
Heightened Def Con from 0.010249 +++++++++++++++++++++to 0.010249
Heightened Def Con from 0.010259 +++++++++++++++++++++to 0.010259
Heightened Def Con from 0.010269 +++++++++++++++++++++to 0.010269
Heightened Def Con from 0.010279 +++++++++++++++++++++to 0.010279
Heightened Def Con from 0.010289 +++++++++++++++++++++to 0.010289
Heightened Def Con from 0.010299 +++++++++++++++++++++to 0.010299
Heightened Def Con from 0.010309 +++++++++++++++++++++to 0.010309
Heightened Def Con from 0.010319 +++++++++++++++++++++to 0.010319
Heightened Def Con from 0.010329 +++++++++++++++++++++to 0.010329
Heightened Def Con from 0.010339 +++++++++++++++++++++to 0.010339
Heightened Def Con from 0.010349 +++++++++++++++++++++to 0.010349
Heightened Def Con from 0.010359 +++++++++++++++++++++to 0.010359
Heightened Def Con from 0.010369 +++++++++++++++++++++to 0.010369
Heightened Def Con from 0.010379 +++++++++++++++++++++to 0.010379
Heightened Def Con from 0.010389 +++++++++++++++++++++to 0.010389
Heightened Def Con from 0.010399 +++++++++++++++++++++to 0.010399
Heightened Def Con from 0.010409 +++++++++++++++++++++to 0.010409
Heightened Def Con from 0.010419 +++++++++++++++++++++to 0.010419
Heightened Def Con from 0.010429 +++++++++++++++++++++to 0.010429
Heightened Def Con from 0.010439 +++++++++++++++++++++to 0.010439
Heightened Def Con from 0.010449 +++++++++++++++++++++to 0.010449
Heightened Def Con from 0.010459 +++++++++++++++++++++to 0.010459
Heightened Def Con from 0.010469 +++++++++++++++++++++to 0.010469
Heightened Def Con from 0.010479 +++++++++++++++++++++to 0.010479
Heightened Def Con from 0.010489 +++++++++++++++++++++to 0.010489
Heightened Def Con from 0.010499 +++++++++++++++++++++to 0.010499
Heightened Def Con from 0.010509 +++++++++++++++++++++to 0.010509
Heightened Def Con from 0.010519 +++++++++++++++++++++to 0.010519
Heightened Def Con from 0.010529 +++++++++++++++++++++to 0.010529
Heightened Def Con from 0.010539 +++++++++++++++++++++to 0.010539
Heightened Def Con from 0.010549 +++++++++++++++++++++to 0.010549
Heightened Def Con from 0.010559 +++++++++++++++++++++to 0.010559
Heightened Def Con from 0.010569 +++++++++++++++++++++to 0.010569
Heightened Def Con from 0.010579 +++++++++++++++++++++to 0.010579
Heightened Def Con from 0.010589 +++++++++++++++++++++to 0.010589
Heightened Def Con from 0.010599 +++++++++++++++++++++to 0.010599
Heightened Def Con from 0.010609 +++++++++++++++++++++to 0.010609
Heightened Def Con from 0.010619 +++++++++++++++++++++to 0.010619
Heightened Def Con from 0.010629 +++++++++++++++++++++to 0.010629
Heightened Def Con from 0.010639 +++++++++++++++++++++to 0.010639
Heightened Def Con from 0.010649 +++++++++++++++++++++to 0.010649
Heightened Def Con from 0.010659 +++++++++++++++++++++to 0.010659
Heightened Def Con from 0.010669 +++++++++++++++++++++to 0.010669
Heightened Def Con from 0.010679 +++++++++++++++++++++to 0.010679
Heightened Def Con from 0.010689 +++++++++++++++++++++to 0.010689
Heightened Def Con from 0.010699 +++++++++++++++++++++to 0.010699
Heightened Def Con from 0.010709 +++++++++++++++++++++to 0.010709
Heightened Def Con from 0.010719 +++++++++++++++++++++to 0.010719
Heightened Def Con from 0.010729 +++++++++++++++++++++to 0.010729
Heightened Def Con from 0.010739 +++++++++++++++++++++to 0.010739
Heightened Def Con from 0.010749 +++++++++++++++++++++to 0.010749
Heightened Def Con from 0.010759 +++++++++++++++++++++to 0.010759
Heightened Def Con from 0.010769 +++++++++++++++++++++to 0.010769
Heightened Def Con from 0.010779 +++++++++++++++++++++to 0.010779
Heightened Def Con from 0.010789 +++++++++++++++++++++to 0.010789
Heightened Def Con from 0.010799 +++++++++++++++++++++to 0.010799
Heightened Def Con from 0.010809 +++++++++++++++++++++to 0.010809
Heightened Def Con from 0.010819 +++++++++++++++++++++to 0.010819
Heightened Def Con from 0.010829 +++++++++++++++++++++to 0.010829
Heightened Def Con from 0.010839 +++++++++++++++++++++to 0.010839
Heightened Def Con from 0.010849 +++++++++++++++++++++to 0.010849
Heightened Def Con from 0.010859 +++++++++++++++++++++to 0.010859
Heightened Def Con from 0.010869 +++++++++++++++++++++to 0.010869
Heightened Def Con from 0.010879 +++++++++++++++++++++to 0.010879
Heightened Def Con from 0.010889 +++++++++++++++++++++to 0.010889
Heightened Def Con from 0.010899 +++++++++++++++++++++to 0.010899
Heightened Def Con from 0.010909 +++++++++++++++++++++to 0.010909
Heightened Def Con from 0.010919 +++++++++++++++++++++to 0.010919
Heightened Def Con from 0.010929 +++++++++++++++++++++to 0.010929
Heightened Def Con from 0.010939 +++++++++++++++++++++to 0.010939
Heightened Def Con from 0.010949 +++++++++++++++++++++to 0.010949
Heightened Def Con from 0.010959 +++++++++++++++++++++to 0.010959
Heightened Def Con from 0.010969 +++++++++++++++++++++to 0.010969
Heightened Def Con from 0.010979 +++++++++++++++++++++to 0.010979
Heightened Def Con from 0.010989 +++++++++++++++++++++to 0.010989
Heightened Def Con from 0.010999 +++++++++++++++++++++to 0.010999
Heightened Def Con from 0.011009 +++++++++++++++++++++to 0.011009
Heightened Def Con from 0.011019 +++++++++++++++++++++to 0.011019
Heightened Def Con from 0.011029 +++++++++++++++++++++to 0.011029
Heightened Def Con from 0.011039 +++++++++++++++++++++to 0.011039
Heightened Def Con from 0.011049 +++++++++++++++++++++to 0.011049
Heightened Def Con from 0.011059 +++++++++++++++++++++to 0.011059
Heightened Def Con from 0.011069 +++++++++++++++++++++to 0.011069
Heightened Def Con from 0.011079 +++++++++++++++++++++to 0.011079
Heightened Def Con from 0.011089 +++++++++++++++++++++to 0.011089
Heightened Def Con from 0.011099 +++++++++++++++++++++to 0.011099
Heightened Def Con from 0.011109 +++++++++++++++++++++to 0.011109
Heightened Def Con from 0.011119 +++++++++++++++++++++to 0.011119
Heightened Def Con from 0.011129 +++++++++++++++++++++to 0.011129
Heightened Def Con from 0.011139 +++++++++++++++++++++to 0.011139
Heightened Def Con from 0.011149 +++++++++++++++++++++to 0.011149
Heightened Def Con from 0.011159 +++++++++++++++++++++to 0.011159
Heightened Def Con from 0.011169 +++++++++++++++++++++to 0.011169
Heightened Def Con from 0.011179 +++++++++++++++++++++to 0.011179
Heightened Def Con from 0.011189 +++++++++++++++++++++to 0.011189
Heightened Def Con from 0.011199 +++++++++++++++++++++to 0.011199
Heightened Def Con from 0.011209 +++++++++++++++++++++to 0.011209
Heightened Def Con from 0.011219 +++++++++++++++++++++to 0.011219
Heightened Def Con from 0.011229 +++++++++++++++++++++to 0.011229
Heightened Def Con from 0.011239 +++++++++++++++++++++to 0.011239
Heightened Def Con from 0.011249 +++++++++++++++++++++to 0.011249
Heightened Def Con from 0.011259 +++++++++++++++++++++to 0.011259
Heightened Def Con from 0.011269 +++++++++++++++++++++to 0.011269
Heightened Def Con from 0.011279 +++++++++++++++++++++to 0.011279
Heightened Def Con from 0.011289 +++++++++++++++++++++to 0.011289
Heightened Def Con from 0.011299 +++++++++++++++++++++to 0.011299
Heightened Def Con from 0.011309 +++++++++++++++++++++to 0.011309
Heightened Def Con from 0.011319 +++++++++++++++++++++to 0.011319
Heightened Def Con from 0.011329 +++++++++++++++++++++to 0.011329
Heightened Def Con from 0.011339 +++++++++++++++++++++to 0.011339
Heightened Def Con from 0.011349 +++++++++++++++++++++to 0.011349
Heightened Def Con from 0.011359 +++++++++++++++++++++to 0.011359
Heightened Def Con from 0.011369 +++++++++++++++++++++to 0.011369
Heightened Def Con from 0.011379 +++++++++++++++++++++to 0.011379
Heightened Def Con from 0.011389 +++++++++++++++++++++to 0.011389
Heightened Def Con from 0.011399 +++++++++++++++++++++to 0.011399
Heightened Def Con from 0.011409 +++++++++++++++++++++to 0.011409
Heightened Def Con from 0.011419 +++++++++++++++++++++to 0.011419
Heightened Def Con from 0.011429 +++++++++++++++++++++to 0.011429
Heightened Def Con from 0.011439 +++++++++++++++++++++to 0.011439
Heightened Def Con from 0.011449 +++++++++++++++++++++to 0.011449
Heightened Def Con from 0.011459 +++++++++++++++++++++to 0.011459
Heightened Def Con from 0.011469 +++++++++++++++++++++to 0.011469
Heightened Def Con from 0.011479 +++++++++++++++++++++to 0.011479
Heightened Def Con from 0.011489 +++++++++++++++++++++to 0.011489
Heightened Def Con from 0.011499 +++++++++++++++++++++to 0.011499
Heightened Def Con from 0.011509 +++++++++++++++++++++to 0.011509
Heightened Def Con from 0.011519 +++++++++++++++++++++to 0.011519
Heightened Def Con from 0.011529 +++++++++++++++++++++to 0.011529
Heightened Def Con from 0.011539 +++++++++++++++++++++to 0.011539
Heightened Def Con from 0.011549 +++++++++++++++++++++to 0.011549
Heightened Def Con from 0.011559 +++++++++++++++++++++to 0.011559
Heightened Def Con from 0.011569 +++++++++++++++++++++to 0.011569
Heightened Def Con from 0.011579 +++++++++++++++++++++to 0.011579
Heightened Def Con from 0.011589 +++++++++++++++++++++to 0.011589
Heightened Def Con from 0.011599 +++++++++++++++++++++to 0.011599
Heightened Def Con from 0.011609 +++++++++++++++++++++to 0.011609
Heightened Def Con from 0.011619 +++++++++++++++++++++to 0.011619
Heightened Def Con from 0.011629 +++++++++++++++++++++to 0.011629
Heightened Def Con from 0.011639 +++++++++++++++++++++to 0.011639
Heightened Def Con from 0.011649 +++++++++++++++++++++to 0.011649
Heightened Def Con from 0.011659 +++++++++++++++++++++to 0.011659
Heightened Def Con from 0.011669 +++++++++++++++++++++to 0.011669
Heightened Def Con from 0.011679 +++++++++++++++++++++to 0.011679
Heightened Def Con from 0.011689 +++++++++++++++++++++to 0.011689
Heightened Def Con from 0.011699 +++++++++++++++++++++to 0.011699
Heightened Def Con from 0.011709 +++++++++++++++++++++to 0.011709
Heightened Def Con from 0.011719 +++++++++++++++++++++to 0.011719
Heightened Def Con from 0.011729 +++++++++++++++++++++to 0.011729
Heightened Def Con from 0.011739 +++++++++++++++++++++to 0.011739
Heightened Def Con from 0.011749 +++++++++++++++++++++to 0.011749
Heightened Def Con from 0.011759 +++++++++++++++++++++to 0.011759
Heightened Def Con from 0.011769 +++++++++++++++++++++to 0.011769
Heightened Def Con from 0.011779 +++++++++++++++++++++to 0.011779
Heightened Def Con from 0.011789 +++++++++++++++++++++to 0.011789
Heightened Def Con from 0.011799 +++++++++++++++++++++to 0.011799
Heightened Def Con from 0.011809 +++++++++++++++++++++to 0.011809
Heightened Def Con from 0.011819 +++++++++++++++++++++to 0.011819
Heightened Def Con from 0.011829 +++++++++++++++++++++to 0.011829
Heightened Def Con from 0.011839 +++++++++++++++++++++to 0.011839
Heightened Def Con from 0.011849 +++++++++++++++++++++to 0.011849
Heightened Def Con from 0.011859 +++++++++++++++++++++to 0.011859
Heightened Def Con from 0.011869 +++++++++++++++++++++to 0.011869
Heightened Def Con from 0.011879 +++++++++++++++++++++to 0.011879
Heightened Def Con from 0.011889 +++++++++++++++++++++to 0.011889
Heightened Def Con from 0.011899 +++++++++++++++++++++to 0.011899
Heightened Def Con from 0.011909 +++++++++++++++++++++to 0.011909
Heightened Def Con from 0.011919 +++++++++++++++++++++to 0.011919
Heightened Def Con from 0.011929 +++++++++++++++++++++to 0.011929
Heightened Def Con from 0.011939 +++++++++++++++++++++to 0.011939
Heightened Def Con from 0.011949 +++++++++++++++++++++to 0.011949
Heightened Def Con from 0.011959 +++++++++++++++++++++to 0.011959
Heightened Def Con from 0.011969 +++++++++++++++++++++to 0.011969
Heightened Def Con from 0.011979 +++++++++++++++++++++to 0.011979
Heightened Def Con from 0.011989 +++++++++++++++++++++to 0.011989
Heightened Def Con from 0.011999 +++++++++++++++++++++to 0.011999
Heightened Def Con from 0.012009 +++++++++++++++++++++to 0.012009
Heightened Def Con from 0.012019 +++++++++++++++++++++to 0.012019
Heightened Def Con from 0.012029 +++++++++++++++++++++to 0.012029
Heightened Def Con from 0.012039 +++++++++++++++++++++to 0.012039
Heightened Def Con from 0.012049 +++++++++++++++++++++to 0.012049
Heightened Def Con from 0.012059 +++++++++++++++++++++to 0.012059
Heightened Def Con from 0.012069 +++++++++++++++++++++to 0.012069
Heightened Def Con from 0.012079 +++++++++++++++++++++to 0.012079
Heightened Def Con from 0.012089 +++++++++++++++++++++to 0.012089
Heightened Def Con from 0.012099 +++++++++++++++++++++to 0.012099
Heightened Def Con from 0.012109 +++++++++++++++++++++to 0.012109
Heightened Def Con from 0.012119 +++++++++++++++++++++to 0.012119
Heightened Def Con from 0.012129 +++++++++++++++++++++to 0.012129
Heightened Def Con from 0.012139 +++++++++++++++++++++to 0.012139
Heightened Def Con from 0.012149 +++++++++++++++++++++to 0.012149
Heightened Def Con from 0.012159 +++++++++++++++++++++to 0.012159
Heightened Def Con from 0.012169 +++++++++++++++++++++to 0.012169
Heightened Def Con from 0.012179 +++++++++++++++++++++to 0.012179
Heightened Def Con from 0.012189 +++++++++++++++++++++to 0.012189
Heightened Def Con from 0.012199 +++++++++++++++++++++to 0.012199
Heightened Def Con from 0.012209 +++++++++++++++++++++to 0.012209
Heightened Def Con from 0.012219 +++++++++++++++++++++to 0.012219
Heightened Def Con from 0.012229 +++++++++++++++++++++to 0.012229
Heightened Def Con from 0.012239 +++++++++++++++++++++to 0.012239
Heightened Def Con from 0.012249 +++++++++++++++++++++to 0.012249
Heightened Def Con from 0.012259 +++++++++++++++++++++to 0.012259
Heightened Def Con from 0.012269 +++++++++++++++++++++to 0.012269
Heightened Def Con from 0.012279 +++++++++++++++++++++to 0.012279
Heightened Def Con from 0.012289 +++++++++++++++++++++to 0.012289
Heightened Def Con from 0.012299 +++++++++++++++++++++to 0.012299
Heightened Def Con from 0.012309 +++++++++++++++++++++to 0.012309
Heightened Def Con from 0.012319 +++++++++++++++++++++to 0.012319
Heightened Def Con from 0.012329 +++++++++++++++++++++to 0.012329
Heightened Def Con from 0.012339 +++++++++++++++++++++to 0.012339
Heightened Def Con from 0.012349 +++++++++++++++++++++to 0.012349
Heightened Def Con from 0.012359 +++++++++++++++++++++to 0.012359
Heightened Def Con from 0.012369 +++++++++++++++++++++to 0.012369
Heightened Def Con from 0.012379 +++++++++++++++++++++to 0.012379
Heightened Def Con from 0.012389 +++++++++++++++++++++to 0.012389
Heightened Def Con from 0.012399 +++++++++++++++++++++to 0.012399
Heightened Def Con from 0.012409 +++++++++++++++++++++to 0.012409
Heightened Def Con from 0.012419 +++++++++++++++++++++to 0.012419
Heightened Def Con from 0.012429 +++++++++++++++++++++to 0.012429
Heightened Def Con from 0.012439 +++++++++++++++++++++to 0.012439
Heightened Def Con from 0.012449 +++++++++++++++++++++to 0.012449
Heightened Def Con from 0.012459 +++++++++++++++++++++to 0.012459
Heightened Def Con from 0.012469 +++++++++++++++++++++to 0.012469
Heightened Def Con from 0.012479 +++++++++++++++++++++to 0.012479
Heightened Def Con from 0.012489 +++++++++++++++++++++to 0.012489
Heightened Def Con from 0.012499 +++++++++++++++++++++to 0.012499
Heightened Def Con from 0.012509 +++++++++++++++++++++to 0.012509
Heightened Def Con from 0.012519 +++++++++++++++++++++to 0.012519
Heightened Def Con from 0.012529 +++++++++++++++++++++to 0.012529
Heightened Def Con from 0.012539 +++++++++++++++++++++to 0.012539
Heightened Def Con from 0.012549 +++++++++++++++++++++to 0.012549
Heightened Def Con from 0.012559 +++++++++++++++++++++to 0.012559
Heightened Def Con from 0.012569 +++++++++++++++++++++to 0.012569
Heightened Def Con from 0.012579 +++++++++++++++++++++to 0.012579
Heightened Def Con from 0.012589 +++++++++++++++++++++to 0.012589
Heightened Def Con from 0.012599 +++++++++++++++++++++to 0.012599
Heightened Def Con from 0.012609 +++++++++++++++++++++to 0.012609
Heightened Def Con from 0.012619 +++++++++++++++++++++to 0.012619
Heightened Def Con from 0.012629 +++++++++++++++++++++to 0.012629
Heightened Def Con from 0.012639 +++++++++++++++++++++to 0.012639
Heightened Def Con from 0.012649 +++++++++++++++++++++to 0.012649
Heightened Def Con from 0.012659 +++++++++++++++++++++to 0.012659
Heightened Def Con from 0.012669 +++++++++++++++++++++to 0.012669
Heightened Def Con from 0.012679 +++++++++++++++++++++to 0.012679
Heightened Def Con from 0.012689 +++++++++++++++++++++to 0.012689
Heightened Def Con from 0.012699 +++++++++++++++++++++to 0.012699
Heightened Def Con from 0.012709 +++++++++++++++++++++to 0.012709
Heightened Def Con from 0.012719 +++++++++++++++++++++to 0.012719
Heightened Def Con from 0.012729 +++++++++++++++++++++to 0.012729
Heightened Def Con from 0.012739 +++++++++++++++++++++to 0.012739
Heightened Def Con from 0.012749 +++++++++++++++++++++to 0.012749
Heightened Def Con from 0.012759 +++++++++++++++++++++to 0.012759
Heightened Def Con from 0.012769 +++++++++++++++++++++to 0.012769
Heightened Def Con from 0.012779 +++++++++++++++++++++to 0.012779
Heightened Def Con from 0.012789 +++++++++++++++++++++to 0.012789
Heightened Def Con from 0.012799 +++++++++++++++++++++to 0.012799
Heightened Def Con from 0.012809 +++++++++++++++++++++to 0.012809
Heightened Def Con from 0.012819 +++++++++++++++++++++to 0.012819
Heightened Def Con from 0.012829 +++++++++++++++++++++to 0.012829
Heightened Def Con from 0.012839 +++++++++++++++++++++to 0.012839
Heightened Def Con from 0.012849 +++++++++++++++++++++to 0.012849
Heightened Def Con from 0.012859 +++++++++++++++++++++to 0.012859
Heightened Def Con from 0.012869 +++++++++++++++++++++to 0.012869
Heightened Def Con from 0.012879 +++++++++++++++++++++to 0.012879
Heightened Def Con from 0.012889 +++++++++++++++++++++to 0.012889
Heightened Def Con from 0.012899 +++++++++++++++++++++to 0.012899
Heightened Def Con from 0.012909 +++++++++++++++++++++to 0.012909
Heightened Def Con from 0.012919 +++++++++++++++++++++to 0.012919
Heightened Def Con from 0.012929 +++++++++++++++++++++to 0.012929
Heightened Def Con from 0.012939 +++++++++++++++++++++to 0.012939
Heightened Def Con from 0.012949 +++++++++++++++++++++to 0.012949
Heightened Def Con from 0.012959 +++++++++++++++++++++to 0.012959
Heightened Def Con from 0.012969 +++++++++++++++++++++to 0.012969
Heightened Def Con from 0.012979 +++++++++++++++++++++to 0.012979
Heightened Def Con from 0.012989 +++++++++++++++++++++to 0.012989
Heightened Def Con from 0.012999 +++++++++++++++++++++to 0.012999
Heightened Def Con from 0.013009 +++++++++++++++++++++to 0.013009
Heightened Def Con from 0.013019 +++++++++++++++++++++to 0.013019
Heightened Def Con from 0.013029 +++++++++++++++++++++to 0.013029
Heightened Def Con from 0.013039 +++++++++++++++++++++to 0.013039
Heightened Def Con from 0.013049 +++++++++++++++++++++to 0.013049
Heightened Def Con from 0.013059 +++++++++++++++++++++to 0.013059
Heightened Def Con from 0.013069 +++++++++++++++++++++to 0.013069
Heightened Def Con from 0.013079 +++++++++++++++++++++to 0.013079
Heightened Def Con from 0.013089 +++++++++++++++++++++to 0.013089
Heightened Def Con from 0.013099 +++++++++++++++++++++to 0.013099
Heightened Def Con from 0.013109 +++++++++++++++++++++to 0.013109
Heightened Def Con from 0.013119 +++++++++++++++++++++to 0.013119
Heightened Def Con from 0.013129 +++++++++++++++++++++to 0.013129
Heightened Def Con from 0.013139 +++++++++++++++++++++to 0.013139
Heightened Def Con from 0.013149 +++++++++++++++++++++to 0.013149
Heightened Def Con from 0.013159 +++++++++++++++++++++to 0.013159
Heightened Def Con from 0.013169 +++++++++++++++++++++to 0.013169
Heightened Def Con from 0.013179 +++++++++++++++++++++to 0.013179
Heightened Def Con from 0.013189 +++++++++++++++++++++to 0.013189
Heightened Def Con from 0.013199 +++++++++++++++++++++to 0.013199
Heightened Def Con from 0.013209 +++++++++++++++++++++to 0.013209
Heightened Def Con from 0.013219 +++++++++++++++++++++to 0.013219
Heightened Def Con from 0.013229 +++++++++++++++++++++to 0.013229
Heightened Def Con from 0.013239 +++++++++++++++++++++to 0.013239
Heightened Def Con from 0.013249 +++++++++++++++++++++to 0.013249
Heightened Def Con from 0.013259 +++++++++++++++++++++to 0.013259
Heightened Def Con from 0.013269 +++++++++++++++++++++to 0.013269
Heightened Def Con from 0.013279 +++++++++++++++++++++to 0.013279
Heightened Def Con from 0.013289 +++++++++++++++++++++to 0.013289
Heightened Def Con from 0.013299 +++++++++++++++++++++to 0.013299
Heightened Def Con from 0.013309 +++++++++++++++++++++to 0.013309
Heightened Def Con from 0.013319 +++++++++++++++++++++to 0.013319
Heightened Def Con from 0.013329 +++++++++++++++++++++to 0.013329
Heightened Def Con from 0.013339 +++++++++++++++++++++to 0.013339
Heightened Def Con from 0.013349 +++++++++++++++++++++to 0.013349
Heightened Def Con from 0.013359 +++++++++++++++++++++to 0.013359
Heightened Def Con from 0.013369 +++++++++++++++++++++to 0.013369
Heightened Def Con from 0.013379 +++++++++++++++++++++to 0.013379
[...]
Heightened Def Con from 0.017039 +++++++++++++++++++++to 0.017039
Heightened Def Con from 0.017049 +++++++++++++++++++++to 0.017049
Heightened Def Con from 0.017059 +++++++++++++++++++++to 0.017059
Heightened Def Con from 0.017069 +++++++++++++++++++++to 0.017069
Heightened Def Con from 0.017079 +++++++++++++++++++++to 0.017079
Heightened Def Con from 0.017089 +++++++++++++++++++++to 0.017089
Heightened Def Con from 0.017099 +++++++++++++++++++++to 0.017099
Heightened Def Con from 0.017109 +++++++++++++++++++++to 0.017109
Heightened Def Con from 0.017119 +++++++++++++++++++++to 0.017119
Heightened Def Con from 0.017129 +++++++++++++++++++++to 0.017129
Heightened Def Con from 0.017139 +++++++++++++++++++++to 0.017139
Heightened Def Con from 0.017149 +++++++++++++++++++++to 0.017149
Heightened Def Con from 0.017159 +++++++++++++++++++++to 0.017159
Heightened Def Con from 0.017169 +++++++++++++++++++++to 0.017169
Heightened Def Con from 0.017179 +++++++++++++++++++++to 0.017179
Heightened Def Con from 0.017189 +++++++++++++++++++++to 0.017189
Heightened Def Con from 0.017199 +++++++++++++++++++++to 0.017199
Heightened Def Con from 0.017209 +++++++++++++++++++++to 0.017209
Heightened Def Con from 0.017219 +++++++++++++++++++++to 0.017219
Heightened Def Con from 0.017229 +++++++++++++++++++++to 0.017229
Heightened Def Con from 0.017239 +++++++++++++++++++++to 0.017239
Heightened Def Con from 0.017249 +++++++++++++++++++++to 0.017249
Heightened Def Con from 0.017259 +++++++++++++++++++++to 0.017259
Heightened Def Con from 0.017269 +++++++++++++++++++++to 0.017269
Heightened Def Con from 0.017279 +++++++++++++++++++++to 0.017279
Heightened Def Con from 0.017289 +++++++++++++++++++++to 0.017289
Heightened Def Con from 0.017299 +++++++++++++++++++++to 0.017299
Heightened Def Con from 0.017309 +++++++++++++++++++++to 0.017309
Heightened Def Con from 0.017319 +++++++++++++++++++++to 0.017319
Heightened Def Con from 0.017329 +++++++++++++++++++++to 0.017329
Heightened Def Con from 0.017339 +++++++++++++++++++++to 0.017339
Heightened Def Con from 0.017349 +++++++++++++++++++++to 0.017349
Heightened Def Con from 0.017359 +++++++++++++++++++++to 0.017359
Heightened Def Con from 0.017369 +++++++++++++++++++++to 0.017369
Heightened Def Con from 0.017379 +++++++++++++++++++++to 0.017379
Heightened Def Con from 0.017389 +++++++++++++++++++++to 0.017389
Heightened Def Con from 0.017399 +++++++++++++++++++++to 0.017399
Heightened Def Con from 0.017409 +++++++++++++++++++++to 0.017409
Heightened Def Con from 0.017419 +++++++++++++++++++++to 0.017419
Heightened Def Con from 0.017429 +++++++++++++++++++++to 0.017429
Heightened Def Con from 0.017439 +++++++++++++++++++++to 0.017439
Heightened Def Con from 0.017449 +++++++++++++++++++++to 0.017449
Heightened Def Con from 0.017459 +++++++++++++++++++++to 0.017459
Heightened Def Con from 0.017469 +++++++++++++++++++++to 0.017469
Heightened Def Con from 0.017479 +++++++++++++++++++++to 0.017479
Heightened Def Con from 0.017489 +++++++++++++++++++++to 0.017489
Heightened Def Con from 0.017499 +++++++++++++++++++++to 0.017499
Heightened Def Con from 0.017509 +++++++++++++++++++++to 0.017509
Heightened Def Con from 0.017519 +++++++++++++++++++++to 0.017519
Heightened Def Con from 0.017529 +++++++++++++++++++++to 0.017529
Heightened Def Con from 0.017539 +++++++++++++++++++++to 0.017539
Heightened Def Con from 0.017549 +++++++++++++++++++++to 0.017549
Heightened Def Con from 0.017559 +++++++++++++++++++++to 0.017559
Heightened Def Con from 0.017569 +++++++++++++++++++++to 0.017569
Heightened Def Con from 0.017579 +++++++++++++++++++++to 0.017579
Heightened Def Con from 0.017589 +++++++++++++++++++++to 0.017589
Heightened Def Con from 0.017599 +++++++++++++++++++++to 0.017599
Heightened Def Con from 0.017609 +++++++++++++++++++++to 0.017609
Heightened Def Con from 0.017619 +++++++++++++++++++++to 0.017619
Heightened Def Con from 0.017629 +++++++++++++++++++++to 0.017629
Heightened Def Con from 0.017639 +++++++++++++++++++++to 0.017639
Heightened Def Con from 0.017649 +++++++++++++++++++++to 0.017649
Heightened Def Con from 0.017659 +++++++++++++++++++++to 0.017659
Heightened Def Con from 0.017669 +++++++++++++++++++++to 0.017669
Heightened Def Con from 0.017679 +++++++++++++++++++++to 0.017679
Heightened Def Con from 0.017689 +++++++++++++++++++++to 0.017689
Heightened Def Con from 0.017699 +++++++++++++++++++++to 0.017699
Heightened Def Con from 0.017709 +++++++++++++++++++++to 0.017709
Heightened Def Con from 0.017719 +++++++++++++++++++++to 0.017719
Heightened Def Con from 0.017729 +++++++++++++++++++++to 0.017729
Heightened Def Con from 0.017739 +++++++++++++++++++++to 0.017739
Heightened Def Con from 0.017749 +++++++++++++++++++++to 0.017749
Heightened Def Con from 0.017759 +++++++++++++++++++++to 0.017759
Heightened Def Con from 0.017769 +++++++++++++++++++++to 0.017769
Heightened Def Con from 0.017779 +++++++++++++++++++++to 0.017779
Heightened Def Con from 0.017789 +++++++++++++++++++++to 0.017789
Heightened Def Con from 0.017799 +++++++++++++++++++++to 0.017799
Heightened Def Con from 0.017809 +++++++++++++++++++++to 0.017809
Heightened Def Con from 0.017819 +++++++++++++++++++++to 0.017819
Heightened Def Con from 0.017829 +++++++++++++++++++++to 0.017829
Heightened Def Con from 0.017839 +++++++++++++++++++++to 0.017839
Heightened Def Con from 0.017849 +++++++++++++++++++++to 0.017849
Heightened Def Con from 0.017859 +++++++++++++++++++++to 0.017859
Heightened Def Con from 0.017869 +++++++++++++++++++++to 0.017869
Heightened Def Con from 0.017879 +++++++++++++++++++++to 0.017879
Heightened Def Con from 0.017889 +++++++++++++++++++++to 0.017889
Heightened Def Con from 0.017899 +++++++++++++++++++++to 0.017899
Heightened Def Con from 0.017909 +++++++++++++++++++++to 0.017909
Heightened Def Con from 0.017919 +++++++++++++++++++++to 0.017919
Heightened Def Con from 0.017929 +++++++++++++++++++++to 0.017929
Heightened Def Con from 0.017939 +++++++++++++++++++++to 0.017939
Heightened Def Con from 0.017949 +++++++++++++++++++++to 0.017949
Heightened Def Con from 0.017959 +++++++++++++++++++++to 0.017959
Heightened Def Con from 0.017969 +++++++++++++++++++++to 0.017969
Heightened Def Con from 0.017979 +++++++++++++++++++++to 0.017979
Heightened Def Con from 0.017989 +++++++++++++++++++++to 0.017989
Heightened Def Con from 0.017999 +++++++++++++++++++++to 0.017999
Heightened Def Con from 0.018009 +++++++++++++++++++++to 0.018009
Heightened Def Con from 0.018019 +++++++++++++++++++++to 0.018019
Heightened Def Con from 0.018029 +++++++++++++++++++++to 0.018029
Heightened Def Con from 0.018039 +++++++++++++++++++++to 0.018039
Heightened Def Con from 0.018049 +++++++++++++++++++++to 0.018049
Heightened Def Con from 0.018059 +++++++++++++++++++++to 0.018059
Heightened Def Con from 0.018069 +++++++++++++++++++++to 0.018069
Heightened Def Con from 0.018079 +++++++++++++++++++++to 0.018079
Heightened Def Con from 0.018089 +++++++++++++++++++++to 0.018089
Heightened Def Con from 0.018099 +++++++++++++++++++++to 0.018099
Heightened Def Con from 0.018109 +++++++++++++++++++++to 0.018109
Heightened Def Con from 0.018119 +++++++++++++++++++++to 0.018119
Heightened Def Con from 0.018129 +++++++++++++++++++++to 0.018129
Heightened Def Con from 0.018139 +++++++++++++++++++++to 0.018139
Heightened Def Con from 0.018149 +++++++++++++++++++++to 0.018149
Heightened Def Con from 0.018159 +++++++++++++++++++++to 0.018159
Heightened Def Con from 0.018169 +++++++++++++++++++++to 0.018169
Heightened Def Con from 0.018179 +++++++++++++++++++++to 0.018179
Heightened Def Con from 0.018189 +++++++++++++++++++++to 0.018189
Heightened Def Con from 0.018199 +++++++++++++++++++++to 0.018199
Heightened Def Con from 0.018209 +++++++++++++++++++++to 0.018209
Heightened Def Con from 0.018219 +++++++++++++++++++++to 0.018219
Heightened Def Con from 0.018229 +++++++++++++++++++++to 0.018229
Heightened Def Con from 0.018239 +++++++++++++++++++++to 0.018239
Heightened Def Con from 0.018249 +++++++++++++++++++++to 0.018249
Heightened Def Con from 0.018259 +++++++++++++++++++++to 0.018259
Heightened Def Con from 0.018269 +++++++++++++++++++++to 0.018269
Heightened Def Con from 0.018279 +++++++++++++++++++++to 0.018279
Heightened Def Con from 0.018289 +++++++++++++++++++++to 0.018289
Heightened Def Con from 0.018299 +++++++++++++++++++++to 0.018299
Heightened Def Con from 0.018309 +++++++++++++++++++++to 0.018309
Heightened Def Con from 0.018319 +++++++++++++++++++++to 0.018319
Heightened Def Con from 0.018329 +++++++++++++++++++++to 0.018329
Heightened Def Con from 0.018339 +++++++++++++++++++++to 0.018339
Heightened Def Con from 0.018349 +++++++++++++++++++++to 0.018349
Heightened Def Con from 0.018359 +++++++++++++++++++++to 0.018359
Heightened Def Con from 0.018369 +++++++++++++++++++++to 0.018369
Heightened Def Con from 0.018379 +++++++++++++++++++++to 0.018379
Heightened Def Con from 0.018389 +++++++++++++++++++++to 0.018389
Heightened Def Con from 0.018399 +++++++++++++++++++++to 0.018399
Heightened Def Con from 0.018409 +++++++++++++++++++++to 0.018409
Heightened Def Con from 0.018419 +++++++++++++++++++++to 0.018419
Heightened Def Con from 0.018429 +++++++++++++++++++++to 0.018429
Heightened Def Con from 0.018439 +++++++++++++++++++++to 0.018439
Heightened Def Con from 0.018449 +++++++++++++++++++++to 0.018449
Heightened Def Con from 0.018459 +++++++++++++++++++++to 0.018459
Heightened Def Con from 0.018469 +++++++++++++++++++++to 0.018469
Heightened Def Con from 0.018479 +++++++++++++++++++++to 0.018479
Heightened Def Con from 0.018489 +++++++++++++++++++++to 0.018489
Heightened Def Con from 0.018499 +++++++++++++++++++++to 0.018499
Heightened Def Con from 0.018509 +++++++++++++++++++++to 0.018509
Heightened Def Con from 0.018519 +++++++++++++++++++++to 0.018519
Heightened Def Con from 0.018529 +++++++++++++++++++++to 0.018529
Heightened Def Con from 0.018539 +++++++++++++++++++++to 0.018539
Heightened Def Con from 0.018549 +++++++++++++++++++++to 0.018549
Heightened Def Con from 0.018559 +++++++++++++++++++++to 0.018559
Heightened Def Con from 0.018569 +++++++++++++++++++++to 0.018569
Heightened Def Con from 0.018579 +++++++++++++++++++++to 0.018579
Heightened Def Con from 0.018589 +++++++++++++++++++++to 0.018589
Heightened Def Con from 0.018599 +++++++++++++++++++++to 0.018599
Heightened Def Con from 0.018609 +++++++++++++++++++++to 0.018609
Heightened Def Con from 0.018619 +++++++++++++++++++++to 0.018619
Heightened Def Con from 0.018629 +++++++++++++++++++++to 0.018629
Heightened Def Con from 0.018639 +++++++++++++++++++++to 0.018639
Heightened Def Con from 0.018649 +++++++++++++++++++++to 0.018649
Heightened Def Con from 0.018659 +++++++++++++++++++++to 0.018659
Heightened Def Con from 0.018669 +++++++++++++++++++++to 0.018669
Heightened Def Con from 0.018679 +++++++++++++++++++++to 0.018679
Heightened Def Con from 0.018689 +++++++++++++++++++++to 0.018689
Heightened Def Con from 0.018699 +++++++++++++++++++++to 0.018699
Heightened Def Con from 0.018709 +++++++++++++++++++++to 0.018709
Heightened Def Con from 0.018719 +++++++++++++++++++++to 0.018719
Heightened Def Con from 0.018729 +++++++++++++++++++++to 0.018729
Heightened Def Con from 0.018739 +++++++++++++++++++++to 0.018739
Heightened Def Con from 0.018749 +++++++++++++++++++++to 0.018749
Heightened Def Con from 0.018759 +++++++++++++++++++++to 0.018759
Heightened Def Con from 0.018769 +++++++++++++++++++++to 0.018769
Heightened Def Con from 0.018779 +++++++++++++++++++++to 0.018779
Heightened Def Con from 0.018789 +++++++++++++++++++++to 0.018789
Heightened Def Con from 0.018799 +++++++++++++++++++++to 0.018799
Heightened Def Con from 0.018809 +++++++++++++++++++++to 0.018809
Heightened Def Con from 0.018819 +++++++++++++++++++++to 0.018819
Heightened Def Con from 0.018829 +++++++++++++++++++++to 0.018829
Heightened Def Con from 0.018839 +++++++++++++++++++++to 0.018839
Heightened Def Con from 0.018849 +++++++++++++++++++++to 0.018849
Heightened Def Con from 0.018859 +++++++++++++++++++++to 0.018859
Heightened Def Con from 0.018869 +++++++++++++++++++++to 0.018869
Heightened Def Con from 0.018879 +++++++++++++++++++++to 0.018879
Heightened Def Con from 0.018889 +++++++++++++++++++++to 0.018889
Heightened Def Con from 0.018899 +++++++++++++++++++++to 0.018899
Heightened Def Con from 0.018909 +++++++++++++++++++++to 0.018909
Heightened Def Con from 0.018919 +++++++++++++++++++++to 0.018919
Heightened Def Con from 0.018929 +++++++++++++++++++++to 0.018929
Heightened Def Con from 0.018939 +++++++++++++++++++++to 0.018939
Heightened Def Con from 0.018949 +++++++++++++++++++++to 0.018949
Heightened Def Con from 0.018959 +++++++++++++++++++++to 0.018959
Heightened Def Con from 0.018969 +++++++++++++++++++++to 0.018969
Heightened Def Con from 0.018979 +++++++++++++++++++++to 0.018979
Heightened Def Con from 0.018989 +++++++++++++++++++++to 0.018989
Heightened Def Con from 0.018999 +++++++++++++++++++++to 0.018999
Heightened Def Con from 0.019009 +++++++++++++++++++++to 0.019009
Heightened Def Con from 0.019019 +++++++++++++++++++++to 0.019019
Heightened Def Con from 0.019029 +++++++++++++++++++++to 0.019029
Heightened Def Con from 0.019039 +++++++++++++++++++++to 0.019039
Heightened Def Con from 0.019049 +++++++++++++++++++++to 0.019049
Heightened Def Con from 0.019059 +++++++++++++++++++++to 0.019059
Heightened Def Con from 0.019069 +++++++++++++++++++++to 0.019069
Heightened Def Con from 0.019079 +++++++++++++++++++++to 0.019079
Heightened Def Con from 0.019089 +++++++++++++++++++++to 0.019089
Heightened Def Con from 0.019099 +++++++++++++++++++++to 0.019099
Heightened Def Con from 0.019109 +++++++++++++++++++++to 0.019109
Heightened Def Con from 0.019119 +++++++++++++++++++++to 0.019119
Heightened Def Con from 0.019129 +++++++++++++++++++++to 0.019129
Heightened Def Con from 0.019139 +++++++++++++++++++++to 0.019139
Heightened Def Con from 0.019149 +++++++++++++++++++++to 0.019149
Heightened Def Con from 0.019159 +++++++++++++++++++++to 0.019159
Heightened Def Con from 0.019169 +++++++++++++++++++++to 0.019169
Heightened Def Con from 0.019179 +++++++++++++++++++++to 0.019179
Heightened Def Con from 0.019189 +++++++++++++++++++++to 0.019189
Heightened Def Con from 0.019199 +++++++++++++++++++++to 0.019199
Heightened Def Con from 0.019209 +++++++++++++++++++++to 0.019209
Heightened Def Con from 0.019219 +++++++++++++++++++++to 0.019219
Heightened Def Con from 0.019229 +++++++++++++++++++++to 0.019229
Heightened Def Con from 0.019239 +++++++++++++++++++++to 0.019239
Heightened Def Con from 0.019249 +++++++++++++++++++++to 0.019249
Heightened Def Con from 0.019259 +++++++++++++++++++++to 0.019259
Heightened Def Con from 0.019269 +++++++++++++++++++++to 0.019269
Heightened Def Con from 0.019279 +++++++++++++++++++++to 0.019279
Heightened Def Con from 0.019289 +++++++++++++++++++++to 0.019289
Heightened Def Con from 0.019299 +++++++++++++++++++++to 0.019299
Heightened Def Con from 0.019309 +++++++++++++++++++++to 0.019309
Heightened Def Con from 0.019319 +++++++++++++++++++++to 0.019319
Heightened Def Con from 0.019329 +++++++++++++++++++++to 0.019329
Heightened Def Con from 0.019339 +++++++++++++++++++++to 0.019339
Heightened Def Con from 0.019349 +++++++++++++++++++++to 0.019349
Heightened Def Con from 0.019359 +++++++++++++++++++++to 0.019359
Heightened Def Con from 0.019369 +++++++++++++++++++++to 0.019369
Heightened Def Con from 0.019379 +++++++++++++++++++++to 0.019379
Heightened Def Con from 0.019389 +++++++++++++++++++++to 0.019389
Heightened Def Con from 0.019399 +++++++++++++++++++++to 0.019399
Heightened Def Con from 0.019409 +++++++++++++++++++++to 0.019409
Heightened Def Con from 0.019419 +++++++++++++++++++++to 0.019419
Heightened Def Con from 0.019429 +++++++++++++++++++++to 0.019429
Heightened Def Con from 0.019439 +++++++++++++++++++++to 0.019439
Heightened Def Con from 0.019449 +++++++++++++++++++++to 0.019449
Heightened Def Con from 0.019459 +++++++++++++++++++++to 0.019459
Heightened Def Con from 0.019469 +++++++++++++++++++++to 0.019469
Heightened Def Con from 0.019479 +++++++++++++++++++++to 0.019479
Heightened Def Con from 0.019489 +++++++++++++++++++++to 0.019489
Heightened Def Con from 0.019499 +++++++++++++++++++++to 0.019499
Heightened Def Con from 0.019509 +++++++++++++++++++++to 0.019509
Heightened Def Con from 0.019519 +++++++++++++++++++++to 0.019519
Heightened Def Con from 0.019529 +++++++++++++++++++++to 0.019529
Heightened Def Con from 0.019539 +++++++++++++++++++++to 0.019539
Heightened Def Con from 0.019549 +++++++++++++++++++++to 0.019549
Heightened Def Con from 0.019559 +++++++++++++++++++++to 0.019559
Heightened Def Con from 0.019569 +++++++++++++++++++++to 0.019569
Heightened Def Con from 0.019579 +++++++++++++++++++++to 0.019579
Heightened Def Con from 0.019589 +++++++++++++++++++++to 0.019589
Heightened Def Con from 0.019599 +++++++++++++++++++++to 0.019599
Heightened Def Con from 0.019609 +++++++++++++++++++++to 0.019609
Heightened Def Con from 0.019619 +++++++++++++++++++++to 0.019619
Heightened Def Con from 0.019629 +++++++++++++++++++++to 0.019629
Heightened Def Con from 0.019639 +++++++++++++++++++++to 0.019639
Heightened Def Con from 0.019649 +++++++++++++++++++++to 0.019649
Heightened Def Con from 0.019659 +++++++++++++++++++++to 0.019659
Heightened Def Con from 0.019669 +++++++++++++++++++++to 0.019669
Heightened Def Con from 0.019679 +++++++++++++++++++++to 0.019679
Heightened Def Con from 0.019689 +++++++++++++++++++++to 0.019689
Heightened Def Con from 0.019699 +++++++++++++++++++++to 0.019699
Heightened Def Con from 0.019709 +++++++++++++++++++++to 0.019709
Heightened Def Con from 0.019719 +++++++++++++++++++++to 0.019719
Heightened Def Con from 0.019729 +++++++++++++++++++++to 0.019729
Heightened Def Con from 0.019739 +++++++++++++++++++++to 0.019739
Heightened Def Con from 0.019749 +++++++++++++++++++++to 0.019749
Heightened Def Con from 0.019759 +++++++++++++++++++++to 0.019759
Heightened Def Con from 0.019769 +++++++++++++++++++++to 0.019769
Heightened Def Con from 0.019779 +++++++++++++++++++++to 0.019779
Heightened Def Con from 0.019789 +++++++++++++++++++++to 0.019789
Heightened Def Con from 0.019799 +++++++++++++++++++++to 0.019799
Heightened Def Con from 0.019809 +++++++++++++++++++++to 0.019809
Heightened Def Con from 0.019819 +++++++++++++++++++++to 0.019819
Heightened Def Con from 0.019829 +++++++++++++++++++++to 0.019829
Heightened Def Con from 0.019839 +++++++++++++++++++++to 0.019839
Heightened Def Con from 0.019849 +++++++++++++++++++++to 0.019849
Heightened Def Con from 0.019859 +++++++++++++++++++++to 0.019859
Heightened Def Con from 0.019869 +++++++++++++++++++++to 0.019869
Heightened Def Con from 0.019879 +++++++++++++++++++++to 0.019879
Heightened Def Con from 0.019889 +++++++++++++++++++++to 0.019889
Heightened Def Con from 0.019899 +++++++++++++++++++++to 0.019899
Heightened Def Con from 0.019909 +++++++++++++++++++++to 0.019909
Heightened Def Con from 0.019919 +++++++++++++++++++++to 0.019919
Heightened Def Con from 0.019929 +++++++++++++++++++++to 0.019929
Heightened Def Con from 0.019939 +++++++++++++++++++++to 0.019939
Heightened Def Con from 0.019949 +++++++++++++++++++++to 0.019949
Heightened Def Con from 0.019959 +++++++++++++++++++++to 0.019959
Heightened Def Con from 0.019969 +++++++++++++++++++++to 0.019969
Heightened Def Con from 0.019979 +++++++++++++++++++++to 0.019979
Heightened Def Con from 0.019989 +++++++++++++++++++++to 0.019989
Heightened Def Con from 0.019999 +++++++++++++++++++++to 0.019999

Date: Tue Nov 09 23:49:16 2021
Total elapsed time: 7.190 seconds.

tnom = 27
temp = 27
method = modified trap
totiter = 5024203
traniter = 5024203
tranpoints = 694088
accept = 286121
rejected = 448029
matrix size = 6
fillins = 0
solver = Alternate
Matrix Compiler1: 154 bytes object code size  0.1/0.1/[0.1]
Matrix Compiler2: off  [0.1]/0.1/0.1

